data_C7200F400Fe1200H4912O6456_2021-03-12_17:16:55
#******************************************
#
# CIF file created by Zeo++
# Zeo++ is an open source package to
# analyze microporous materials
#
#*******************************************

_cell_length_a		67.2727   
_cell_length_b		67.2727   
_cell_length_c		67.2727   
_cell_angle_alpha		90   
_cell_angle_beta		90   
_cell_angle_gamma		90   

_symmetry_space_group_name_H-M		'P1'
_symmetry_Int_Tables_number		1
_symmetry_cell_setting		Tetragonal

loop_
_symmetry_equiv_pos_as_xyz
'+x,+y,+z'

loop_
_atom_site_label
_atom_site_type_symbol
_atom_site_fract_x
_atom_site_fract_y
_atom_site_fract_z
266888351	O	0.171943	0.203349	0.219388
266888351	O	0.14572	0.183135	0.212766
266888351	C	0.153476	0.200045	0.216251
266888351	Fe	0.161554	0.161873	0.201202
266888351	O	0.179219	0.142419	0.187311
266888351	C	0.186981	0.127533	0.196339
266888351	O	0.217863	0.167817	0.242568
266888351	O	0.212239	0.136061	0.235707
266888351	C	0.223106	0.149675	0.243734
266888351	O	0.178879	0.181965	0.18471
266888351	Fe	0.19487	0.184504	0.229639
266888351	O	0.179222	0.160678	0.224616
266888351	Fe	0.182365	0.135896	0.239654
266888351	O	0.143733	0.143449	0.214691
266888351	O	0.153375	0.13277	0.24443
266888351	C	0.141889	0.143661	0.233921
266888351	O	0.185194	0.150514	0.266416
266888351	O	0.212668	0.208999	0.23373
266888351	O	0.207221	0.180185	0.201107
266888351	C	0.197025	0.185854	0.186004
266888351	H	0.222781	0.20917	0.223492
266888351	H	0.221372	0.206375	0.246685
266888351	F	0.144986	0.162717	0.178943
266888351	O	0.198083	0.25525	0.204034
266888351	C	0.204128	0.256648	0.186586
266888351	O	0.198225	0.244109	0.244241
266888351	H	0.1836	0.242406	0.241974
266888351	O	0.222791	0.11426	0.124432
266888351	F	0.112768	0.251341	0.132402
266888351	C	0.209838	0.201461	0.155064
266888351	C	0.20336	0.220224	0.184793
266888351	C	0.214437	0.219088	0.144824
266888351	C	0.207668	0.237962	0.174568
266888351	C	0.212359	0.237694	0.154445
266888351	C	0.203927	0.202228	0.174896
266888351	H	0.198248	0.221192	0.199496
266888351	H	0.217117	0.251704	0.148296
266888351	H	0.212965	0.188261	0.147613
266888351	C	0.222369	0.134469	0.192261
266888351	C	0.237972	0.135754	0.177743
266888351	C	0.206927	0.122069	0.189328
266888351	H	0.220601	0.146359	0.20241
266888351	H	0.150694	0.174899	0.258563
266888351	C	0.14	0.217658	0.216443
266888351	C	0.107366	0.233264	0.223863
266888351	C	0.121186	0.217913	0.226903
266888351	H	0.117081	0.206102	0.237528
266888351	C	0.250988	0.153426	0.178298
266888351	O	0.146871	0.260618	0.167803
266888351	H	0.145602	0.272981	0.158955
266888351	O	0.20726	0.273858	0.179297
266888351	Fe	0.194055	0.299654	0.189532
266888351	O	0.181186	0.32514	0.195891
266888351	O	0.169314	0.284853	0.199193
266888351	Fe	0.202012	0.271177	0.229709
266888351	O	0.205058	0.296009	0.215549
266888351	Fe	0.219497	0.316285	0.228861
266888351	O	0.218791	0.314534	0.178288
266888351	O	0.238406	0.31988	0.205874
266888351	C	0.23532	0.321505	0.186663
266888351	O	0.239031	0.29663	0.240681
266888351	O	0.170979	0.277748	0.230757
266888351	O	0.232559	0.267226	0.227198
266888351	C	0.162349	0.286966	0.216219
266888351	F	0.182334	0.301881	0.164322
266888351	C	0.140486	0.305007	0.240274
266888351	C	0.145114	0.300855	0.220118
266888351	C	0.137658	0.313776	0.205284
266888351	H	0.147899	0.29702	0.251867
266888351	H	0.142486	0.313086	0.190034
266888351	O	0.110247	0.246188	0.329107
266888351	Fe	0.161433	0.21315	0.314023
266888351	O	0.160034	0.242926	0.303275
266888351	C	0.159569	0.258584	0.313917
266888351	O	0.14641	0.201479	0.288725
266888351	O	0.119719	0.189634	0.30291
266888351	C	0.130005	0.19192	0.287881
266888351	H	0.199092	0.220447	0.305244
266888351	O	0.182781	0.187803	0.258014
266888351	H	0.193827	0.188064	0.267012
266888351	H	0.200139	0.245921	0.258847
266888351	C	0.134467	0.171167	0.257375
266888351	C	0.108588	0.148578	0.245203
266888351	C	0.121454	0.180158	0.270893
266888351	C	0.127487	0.156553	0.243589
266888351	C	0.142318	0.232119	0.201076
266888351	C	0.111587	0.248668	0.210731
266888351	C	0.128215	0.247455	0.197993
266888351	H	0.15373	0.230008	0.19016
266888351	H	0.190038	0.139898	0.275777
266888351	H	0.17707	0.20192	0.256632
266888351	C	0.130542	0.261581	0.180933
266888351	Fe	0.116617	0.313589	0.309104
266888351	O	0.129422	0.286247	0.309715
266888351	O	0.129906	0.314863	0.280505
266888351	H	0.121541	0.278495	0.318302
266888351	H	0.127074	0.27959	0.296876
266888351	O	0.205848	0.282585	0.257645
266888351	O	0.19877	0.31425	0.251762
266888351	C	0.197954	0.299222	0.263132
266888351	C	0.165709	0.296917	0.317803
266888351	C	0.180264	0.28036	0.290267
266888351	C	0.166865	0.315815	0.307872
266888351	C	0.185662	0.298833	0.281851
266888351	C	0.179215	0.316409	0.290866
266888351	C	0.169312	0.278332	0.307827
266888351	H	0.184495	0.267	0.281977
266888351	O	0.118247	0.275509	0.178284
266888351	O	0.107986	0.194025	0.113316
266888351	O	0.137036	0.214961	0.330354
266888351	O	0.151482	0.257926	0.331002
266888351	O	0.188056	0.211996	0.298847
266888351	H	0.186321	0.219211	0.286172
266888351	H	0.157894	0.297996	0.332096
266888351	H	0.176045	0.133007	0.324837
266888351	O	0.144016	0.130397	0.293667
266888351	O	0.168036	0.184674	0.323425
266888351	C	0.129524	0.115925	0.290465
266888351	O	0.10515	0.309276	0.337294
266888351	C	0.102413	0.1717	0.272132
266888351	O	0.110879	0.120555	0.287631
266888351	Fe	0.117476	0.194143	0.33129
266888351	C	0.158531	0.171227	0.33312
266888351	C	0.190803	0.340354	0.202181
266888351	H	0.165182	0.101973	0.300115
266888351	C	0.244435	0.280069	0.233918
266888351	H	0.138174	0.142868	0.289794
266888351	O	0.180157	0.120629	0.213008
266888351	C	0.250786	0.331869	0.17467
266888351	C	0.223393	0.220935	0.124623
266888351	O	0.138885	0.326077	0.324351
266888351	O	0.182639	0.115737	0.114467
266888351	C	0.128688	0.321724	0.245622
266888351	O	0.227866	0.206234	0.114432
266888351	C	0.237317	0.123797	0.161442
266888351	C	0.126283	0.32731	0.266338
266888351	C	0.235881	0.127974	0.270407
266888351	C	0.238681	0.144909	0.258216
266888351	O	0.249397	0.107893	0.319192
266888351	C	0.222861	0.109672	0.158734
266888351	C	0.24327	0.106985	0.300685
266888351	C	0.152064	0.332347	0.313534
266888351	H	0.223387	0.117784	0.269428
266888351	C	0.2482	0.124652	0.286905
266888351	H	0.178901	0.330255	0.282253
266888351	O	0.124296	0.228051	0.102309
266888351	O	0.22848	0.23859	0.11872
266888351	O	0.187086	0.108756	0.254836
266888351	H	0.255831	0.16965	0.249568
266888351	C	0.125644	0.329778	0.210467
266888351	Fe	0.254685	0.243801	0.104949
266888351	C	0.255493	0.156914	0.259813
266888351	C	0.119837	0.33245	0.230338
266888351	H	0.176133	0.126325	0.107213
266888351	H	0.248232	0.126546	0.1488
266888351	O	0.256686	0.161847	0.196211
266888351	C	0.207811	0.109029	0.173337
266888351	O	0.17722	0.224557	0.338652
266888351	C	0.181138	0.139651	0.338322
266888351	O	0.105688	0.339232	0.308472
266888351	O	0.140093	0.172763	0.33717
266888351	O	0.203029	0.339087	0.21608
266888351	O	0.205828	0.148118	0.103335
266888351	H	0.202441	0.149893	0.117193
266888351	H	0.257829	0.244774	0.247831
266888351	O	0.233061	0.338642	0.245203
266888351	C	0.217887	0.102803	0.138851
266888351	Fe	0.208294	0.117815	0.0987475
266888351	O	0.242397	0.270993	0.100942
266888351	H	0.101452	0.260409	0.207395
266888351	C	0.100481	0.198385	0.130116
266888351	H	0.105179	0.134947	0.237812
266888351	Fe	0.0982539	0.23979	0.112396
266888351	H	0.174653	0.105767	0.26255
266888351	H	0.233011	0.331917	0.25875
266888351	H	0.0997256	0.20788	0.1665
266888351	C	0.0991286	0.183451	0.147213
266888351	O	0.397536	0.187596	0.141244
266888351	C	0.0968387	0.161881	0.145729
266888351	H	0.164486	0.226351	0.0970726
266888351	C	0.261106	0.331988	0.106089
266888351	C	0.370216	0.245396	0.343169
266888351	C	0.0981946	0.102435	0.339893
266888351	H	0.384652	0.0995545	0.274067
266888351	C	0.0971661	0.192254	0.165869
266888351	H	0.235135	0.315367	0.101466
266888351	H	0.0973159	0.26591	0.2991
266888351	H	0.424481	0.302229	0.211372
266888351	C	0.250657	0.315419	0.100222
266888351	H	0.192626	0.15189	0.0971195
266888351	H	0.247277	0.338648	0.24171
266888351	C	0.426223	0.29122	0.260014
266888351	O	0.253765	0.163247	0.162343
266888351	O	0.266081	0.255357	0.130815
266888351	H	0.108982	0.343888	0.234392
266888351	C	0.364994	0.0948612	0.340187
266888351	C	0.0958972	0.15631	0.259963
266888351	H	0.187534	0.0996405	0.243671
266888351	O	0.0948946	0.172912	0.330771
266888351	O	0.395489	0.197794	0.334067
266888351	H	0.406828	0.0978241	0.331994
266888351	C	0.382864	0.109917	0.147725
266888351	C	0.376558	0.343297	0.141188
266888351	O	0.379117	0.144977	0.0968197
266888351	H	0.401314	0.343491	0.259981
266888351	H	0.318067	0.247294	0.342231
266888351	O	0.340568	0.334221	0.213178
266888351	H	0.347867	0.260687	0.293978
266888351	O	0.424934	0.103689	0.274208
266888351	H	0.356872	0.198479	0.331911
266888351	H	0.385043	0.095889	0.250813
266888351	C	0.372609	0.224319	0.340719
266888351	Fe	0.352363	0.318625	0.344309
266888351	H	0.264835	0.173088	0.191878
266888351	C	0.390823	0.215988	0.331655
266888351	F	0.32394	0.153579	0.314705
266888351	C	0.400701	0.109668	0.340503
266888351	C	0.336413	0.221592	0.337524
266888351	H	0.100706	0.161456	0.323461
266888351	C	0.336398	0.219335	0.096317
266888351	C	0.373282	0.319158	0.0970881
266888351	O	0.0961308	0.215634	0.324915
266888351	C	0.355228	0.213541	0.337502
266888351	H	0.417771	0.296959	0.273346
266888351	C	0.314657	0.299151	0.233341
266888351	O	0.320211	0.191815	0.325751
266888351	Fe	0.336339	0.310073	0.196085
266888351	O	0.384735	0.144305	0.135346
266888351	O	0.394906	0.146844	0.250237
266888351	H	0.274148	0.266397	0.126015
266888351	C	0.338839	0.204213	0.131536
266888351	O	0.363763	0.300703	0.202417
266888351	C	0.333512	0.241395	0.341686
266888351	C	0.387071	0.192852	0.26543
266888351	C	0.356848	0.1555	0.190801
266888351	H	0.363754	0.142848	0.283124
266888351	C	0.411932	0.32121	0.243384
266888351	O	0.331482	0.17227	0.246386
266888351	H	0.364688	0.131292	0.243192
266888351	O	0.410117	0.218478	0.191119
266888351	C	0.399526	0.29678	0.113879
266888351	C	0.421979	0.301744	0.242787
266888351	C	0.396779	0.231255	0.186637
266888351	H	0.374827	0.329582	0.316777
266888351	C	0.378715	0.149217	0.220154
266888351	O	0.345301	0.168869	0.114951
266888351	Fe	0.371626	0.173691	0.132436
266888351	O	0.296534	0.163311	0.152711
266888351	H	0.275603	0.245731	0.136263
266888351	H	0.337121	0.337974	0.27781
266888351	C	0.306993	0.212265	0.114956
266888351	H	0.40958	0.185672	0.289714
266888351	H	0.291381	0.257837	0.0988401
266888351	C	0.327419	0.214508	0.114747
266888351	H	0.356424	0.170978	0.315752
266888351	O	0.384394	0.106266	0.260416
266888351	C	0.345058	0.136581	0.219213
266888351	H	0.367472	0.306943	0.311217
266888351	O	0.414751	0.148605	0.224098
266888351	O	0.419189	0.115559	0.235222
266888351	C	0.281605	0.332223	0.102577
266888351	C	0.273499	0.205897	0.098955
266888351	C	0.362942	0.13883	0.228675
266888351	C	0.298959	0.286389	0.240179
266888351	H	0.361023	0.120355	0.168954
266888351	O	0.26471	0.215906	0.112327
266888351	O	0.361815	0.304481	0.236588
266888351	H	0.388389	0.286288	0.118241
266888351	C	0.285606	0.340609	0.174534
266888351	O	0.343471	0.235041	0.261444
266888351	O	0.414479	0.153731	0.304478
266888351	O	0.325402	0.309774	0.332276
266888351	Fe	0.307011	0.101713	0.196447
266888351	H	0.358838	0.335094	0.275074
266888351	H	0.194127	0.0987847	0.170505
266888351	C	0.339478	0.163097	0.260524
266888351	O	0.407101	0.330347	0.261486
266888351	C	0.30313	0.268714	0.249505
266888351	O	0.395138	0.214968	0.239101
266888351	C	0.264807	0.274214	0.237197
266888351	O	0.276914	0.106241	0.204255
266888351	C	0.369558	0.18492	0.256787
266888351	Fe	0.344126	0.331781	0.241087
266888351	H	0.369966	0.213331	0.213646
266888351	C	0.37536	0.158625	0.201583
266888351	O	0.324964	0.327082	0.0991422
266888351	C	0.279198	0.288965	0.233013
266888351	H	0.286794	0.155743	0.145417
266888351	F	0.410243	0.248106	0.134859
266888351	C	0.387579	0.162932	0.286331
266888351	C	0.271051	0.326673	0.178459
266888351	O	0.354108	0.180795	0.304574
266888351	O	0.323354	0.199498	0.279217
266888351	C	0.294169	0.234645	0.261088
266888351	O	0.301331	0.12447	0.177253
266888351	H	0.300623	0.208819	0.129241
266888351	Fe	0.419317	0.228483	0.148364
266888351	C	0.360381	0.167405	0.264352
266888351	O	0.414935	0.260143	0.135269
266888351	O	0.396941	0.23594	0.168731
266888351	C	0.345516	0.227996	0.243473
266888351	O	0.328476	0.192839	0.143652
266888351	O	0.398924	0.130556	0.28968
266888351	C	0.384688	0.262892	0.204039
266888351	Fe	0.350658	0.139	0.102021
266888351	C	0.306221	0.336376	0.181185
266888351	H	0.295822	0.204373	0.21862
266888351	O	0.346847	0.328343	0.271913
266888351	C	0.269805	0.255973	0.245522
266888351	H	0.327629	0.143854	0.194672
266888351	O	0.359288	0.123053	0.125224
266888351	C	0.374298	0.272608	0.219868
266888351	Fe	0.328333	0.227412	0.287321
266888351	C	0.394552	0.313306	0.10259
266888351	H	0.311976	0.124012	0.166799
266888351	O	0.309358	0.319499	0.189905
266888351	O	0.367251	0.337298	0.0986078
266888351	H	0.396611	0.239892	0.317388
266888351	O	0.348746	0.159136	0.123466
266888351	C	0.377578	0.333037	0.158362
266888351	Fe	0.40942	0.124798	0.262146
266888351	C	0.33297	0.119083	0.22427
266888351	O	0.29427	0.171834	0.294364
266888351	H	0.341786	0.179371	0.103504
266888351	H	0.362311	0.193676	0.245731
266888351	C	0.268506	0.154126	0.275694
266888351	C	0.309168	0.146847	0.100742
266888351	C	0.375594	0.126661	0.134733
266888351	H	0.275069	0.301937	0.225473
266888351	C	0.36977	0.155991	0.278042
266888351	O	0.412503	0.216878	0.268612
266888351	H	0.288107	0.121735	0.169419
266888351	C	0.398795	0.209129	0.257316
266888351	H	0.274909	0.12083	0.204116
266888351	H	0.395823	0.202412	0.137973
266888351	O	0.312294	0.21998	0.313067
266888351	Fe	0.324242	0.17612	0.298919
266888351	C	0.41839	0.29529	0.123049
266888351	H	0.335427	0.293111	0.163638
266888351	O	0.320475	0.314262	0.24283
266888351	O	0.341163	0.102826	0.229039
266888351	H	0.38812	0.16658	0.194547
266888351	O	0.403608	0.226659	0.319127
266888351	O	0.337668	0.155326	0.162414
266888351	C	0.399825	0.148098	0.295808
266888351	Fe	0.313384	0.195033	0.250978
266888351	H	0.404853	0.181853	0.130291
266888351	C	0.341744	0.145832	0.201312
266888351	O	0.314975	0.120815	0.217438
266888351	H	0.355582	0.266548	0.244738
266888351	C	0.289078	0.253148	0.250925
266888351	H	0.276989	0.126887	0.102705
266888351	O	0.335984	0.100147	0.185309
266888351	C	0.413358	0.332837	0.158751
266888351	O	0.330528	0.287183	0.176234
266888351	O	0.307981	0.163017	0.110043
266888351	C	0.28584	0.167882	0.277465
266888351	C	0.3647	0.259753	0.233755
266888351	O	0.406494	0.329624	0.226722
266888351	C	0.296103	0.209008	0.0980973
266888351	C	0.371723	0.108725	0.164779
266888351	H	0.274234	0.312853	0.186337
266888351	C	0.35986	0.239446	0.229372
266888351	H	0.3388	0.274733	0.177416
266888351	C	0.395693	0.326066	0.166813
266888351	C	0.395399	0.182336	0.281712
266888351	O	0.364184	0.174991	0.162088
266888351	H	0.389882	0.271785	0.191127
266888351	O	0.323996	0.293463	0.218051
266888351	C	0.422853	0.278476	0.137265
266888351	C	0.370731	0.229976	0.213966
266888351	O	0.30192	0.191217	0.222584
266888351	H	0.363243	0.22986	0.300422
266888351	C	0.362531	0.335363	0.17277
266888351	O	0.382345	0.176524	0.103962
266888351	H	0.39586	0.315756	0.178625
266888351	H	0.324191	0.26433	0.289676
266888351	O	0.335184	0.213661	0.237297
266888351	C	0.368208	0.293862	0.219924
266888351	O	0.302039	0.236926	0.277776
266888351	O	0.347991	0.323691	0.17225
266888351	O	0.292922	0.174795	0.261022
266888351	O	0.357842	0.201173	0.127943
266888351	C	0.264166	0.138652	0.289969
266888351	H	0.328224	0.31313	0.318308
266888351	C	0.353168	0.161417	0.170431
266888351	H	0.31845	0.263255	0.253536
266888351	H	0.290777	0.177184	0.151596
266888351	O	0.29321	0.217698	0.251699
266888351	C	0.383748	0.241513	0.202163
266888351	O	0.363111	0.321316	0.316166
266888351	H	0.271149	0.15657	0.332519
266888351	H	0.29118	0.181176	0.223081
266888351	Fe	0.323121	0.162122	0.136526
266888351	C	0.321079	0.21058	0.326203
266888351	O	0.354764	0.218892	0.297237
266888351	C	0.397467	0.148528	0.231731
266888351	O	0.33447	0.256228	0.29787
266888351	H	0.40071	0.228361	0.237258
266888351	H	0.361879	0.213439	0.285982
266888351	O	0.328363	0.158048	0.27442
266888351	O	0.321372	0.132945	0.10647
266888351	H	0.275861	0.136592	0.30173
266888351	C	0.096673	0.235111	0.322535
266888351	C	0.135754	0.0946706	0.291665
266888351	H	0.352295	0.22291	0.0967779
266888351	H	0.423614	0.182462	0.25117
266888351	H	0.0951349	0.155733	0.130845
266888351	O	0.194633	0.0961059	0.343661
266888351	C	0.350473	0.254107	0.344264
266888351	C	0.410072	0.326488	0.0966869
266888351	O	0.111328	0.227853	0.366391
266888351	O	0.201016	0.146726	0.407961
266888351	O	0.190653	0.177928	0.401517
266888351	C	0.194587	0.160139	0.396204
266888351	O	0.194764	0.214993	0.422828
266888351	C	0.210669	0.219788	0.415255
266888351	H	0.159473	0.21067	0.423789
266888351	C	0.20109	0.138512	0.368197
266888351	C	0.190199	0.154402	0.37532
266888351	C	0.175804	0.163438	0.364078
266888351	H	0.212862	0.132913	0.376936
266888351	C	0.198517	0.225074	0.381816
266888351	C	0.210476	0.231525	0.397232
266888351	O	0.198812	0.30069	0.381761
266888351	O	0.213356	0.288274	0.410281
266888351	C	0.206541	0.286092	0.39231
266888351	O	0.199511	0.326918	0.415435
266888351	O	0.156105	0.316032	0.422698
266888351	O	0.162928	0.324861	0.391314
266888351	C	0.150528	0.319258	0.404718
266888351	C	0.207066	0.265554	0.384944
266888351	C	0.113418	0.324175	0.41113
266888351	C	0.105209	0.313694	0.371319
266888351	C	0.129357	0.317376	0.398812
266888351	C	0.124861	0.312139	0.378846
266888351	O	0.126498	0.197796	0.444726
266888351	O	0.108754	0.159881	0.448948
266888351	C	0.10683	0.143026	0.457098
266888351	O	0.126282	0.175816	0.482531
266888351	O	0.112694	0.189073	0.508949
266888351	C	0.127659	0.184132	0.498954
266888351	H	0.123999	0.191958	0.431404
266888351	H	0.124022	0.212205	0.443474
266888351	O	0.161933	0.129881	0.579465
266888351	O	0.148886	0.121255	0.519496
266888351	C	0.158575	0.113526	0.50527
266888351	Fe	0.157024	0.125787	0.549087
266888351	O	0.204613	0.115893	0.543705
266888351	O	0.142993	0.152815	0.548564
266888351	O	0.130072	0.114028	0.557829
266888351	O	0.184351	0.139918	0.536135
266888351	C	0.201748	0.131603	0.535125
266888351	H	0.135842	0.153778	0.56093
266888351	H	0.132085	0.151974	0.538831
266888351	O	0.167776	0.23835	0.517121
266888351	O	0.163548	0.231586	0.547945
266888351	C	0.15636	0.235019	0.531031
266888351	Fe	0.186487	0.246961	0.562698
266888351	O	0.212605	0.238844	0.549629
266888351	O	0.184525	0.25891	0.484614
266888351	O	0.209961	0.247152	0.517303
266888351	C	0.220182	0.246424	0.533628
266888351	H	0.170139	0.261324	0.481553
266888351	H	0.191651	0.270601	0.480319
266888351	O	0.241521	0.156895	0.417619
266888351	Fe	0.217442	0.149204	0.433746
266888351	O	0.193879	0.140851	0.451408
266888351	H	0.162374	0.157852	0.420526
266888351	O	0.170485	0.158752	0.432309
266888351	O	0.205685	0.209794	0.464482
266888351	O	0.178214	0.192568	0.456414
266888351	C	0.187771	0.203727	0.468421
266888351	O	0.23407	0.149746	0.458934
266888351	Fe	0.228651	0.195397	0.448712
266888351	O	0.210391	0.177017	0.437622
266888351	Fe	0.184311	0.186089	0.428657
266888351	O	0.15813	0.19715	0.418761
266888351	O	0.228947	0.178815	0.474031
266888351	C	0.232411	0.160533	0.47462
266888351	H	0.159434	0.197665	0.403291
266888351	F	0.222761	0.12265	0.43083
266888351	O	0.231264	0.165265	0.563411
266888351	C	0.120003	0.239916	0.544087
266888351	C	0.125638	0.233952	0.507912
266888351	C	0.133604	0.235977	0.528068
266888351	H	0.135442	0.231171	0.495919
266888351	H	0.12478	0.239692	0.559548
266888351	C	0.23771	0.126037	0.524549
266888351	C	0.234558	0.151752	0.493208
266888351	C	0.220488	0.138499	0.523911
266888351	C	0.220118	0.151842	0.508171
266888351	H	0.238638	0.114563	0.536607
266888351	H	0.207405	0.161115	0.505695
266888351	C	0.240288	0.257942	0.533101
266888351	C	0.189189	0.198909	0.504793
266888351	C	0.158829	0.189083	0.520539
266888351	C	0.178195	0.204865	0.487717
266888351	C	0.147725	0.194046	0.503297
266888351	C	0.158042	0.203005	0.488065
266888351	C	0.179155	0.191882	0.521788
266888351	H	0.151229	0.184364	0.533239
266888351	H	0.149477	0.207232	0.474239
266888351	H	0.205129	0.197078	0.504581
266888351	C	0.129222	0.115974	0.447243
266888351	C	0.148243	0.114832	0.484352
266888351	C	0.124146	0.13034	0.461412
266888351	C	0.133893	0.129678	0.479967
266888351	H	0.12149	0.11691	0.432561
266888351	H	0.128921	0.138265	0.49247
266888351	H	0.194148	0.126473	0.450392
266888351	H	0.160086	0.160249	0.442457
266888351	H	0.220255	0.155601	0.568931
266888351	O	0.182032	0.179384	0.553945
266888351	C	0.190289	0.188257	0.539542
266888351	O	0.209895	0.194337	0.540442
266888351	H	0.213578	0.192633	0.554303
266888351	O	0.201417	0.288259	0.511953
266888351	O	0.209453	0.30114	0.542377
266888351	C	0.212303	0.300058	0.523446
266888351	Fe	0.181276	0.294453	0.552265
266888351	O	0.153721	0.287858	0.561934
266888351	O	0.169348	0.303928	0.524994
266888351	Fe	0.184442	0.262728	0.51546
266888351	O	0.184977	0.267732	0.543366
266888351	O	0.157682	0.277168	0.513423
266888351	C	0.154782	0.294613	0.518597
266888351	F	0.176715	0.31881	0.55913
266888351	Fe	0.22588	0.312985	0.420346
266888351	Fe	0.180293	0.330397	0.435954
266888351	O	0.22133	0.306288	0.449428
266888351	O	0.18892	0.304504	0.450576
266888351	C	0.205912	0.306009	0.459818
266888351	C	0.136804	0.324752	0.51136
266888351	C	0.117352	0.296125	0.52084
266888351	C	0.135552	0.30433	0.516495
266888351	H	0.117546	0.280344	0.524524
266888351	C	0.195853	0.328767	0.486769
266888351	C	0.223136	0.315499	0.512498
266888351	C	0.208955	0.313383	0.480406
266888351	C	0.225532	0.310004	0.492534
266888351	H	0.234873	0.296846	0.489073
266888351	H	0.117929	0.301237	0.57412
266888351	C	0.104543	0.210409	0.36917
266888351	C	0.104357	0.233894	0.505724
266888351	O	0.133314	0.140658	0.3771
266888351	H	0.166916	0.175675	0.368842
266888351	C	0.149797	0.27378	0.573058
266888351	O	0.226403	0.212113	0.422337
266888351	C	0.216099	0.251502	0.39757
266888351	O	0.161771	0.258911	0.575133
266888351	H	0.240671	0.26736	0.50049
266888351	H	0.116952	0.330943	0.425749
266888351	C	0.247659	0.268004	0.515087
266888351	O	0.236068	0.327736	0.577242
266888351	H	0.136157	0.310089	0.368647
266888351	C	0.195556	0.25826	0.369209
266888351	C	0.215845	0.335057	0.516024
266888351	H	0.183266	0.331338	0.479581
266888351	H	0.194966	0.210192	0.382262
266888351	H	0.240908	0.262062	0.56475
266888351	C	0.104436	0.330701	0.524187
266888351	F	0.129149	0.263424	0.361521
266888351	C	0.25584	0.168209	0.421735
266888351	Fe	0.192752	0.331788	0.388703
266888351	O	0.241851	0.206524	0.571636
266888351	O	0.156023	0.234383	0.36293
266888351	C	0.251894	0.124382	0.508605
266888351	C	0.19078	0.23841	0.368379
266888351	O	0.10644	0.212532	0.476747
266888351	O	0.235294	0.315616	0.392461
266888351	H	0.190145	0.269812	0.358874
266888351	C	0.117743	0.28848	0.583934
266888351	F	0.249872	0.300159	0.423842
266888351	O	0.175217	0.105317	0.50837
266888351	C	0.250498	0.139083	0.493781
266888351	O	0.11317	0.196406	0.360997
266888351	H	0.151385	0.329194	0.505528
266888351	H	0.225076	0.256614	0.41082
266888351	C	0.250191	0.262588	0.551119
266888351	O	0.191704	0.288377	0.581534
266888351	O	0.254355	0.18177	0.434886
266888351	C	0.236491	0.332921	0.3874
266888351	O	0.204637	0.259721	0.58232
266888351	C	0.173461	0.231799	0.355746
266888351	O	0.248181	0.215409	0.460615
266888351	Fe	0.105571	0.18558	0.462614
266888351	O	0.186883	0.223721	0.5827
266888351	C	0.131924	0.273655	0.584351
266888351	O	0.15922	0.336031	0.456841
266888351	Fe	0.245329	0.180067	0.586307
266888351	H	0.232527	0.10675	0.568803
266888351	C	0.151972	0.119118	0.591823
266888351	C	0.24968	0.13725	0.588764
266888351	C	0.151081	0.0995406	0.470034
266888351	O	0.168573	0.0992634	0.54996
266888351	H	0.156235	0.32252	0.461355
266888351	O	0.148766	0.101119	0.588511
266888351	H	0.102703	0.196835	0.40638
266888351	C	0.230288	0.105294	0.583794
266888351	C	0.121776	0.338497	0.515277
266888351	H	0.232563	0.213372	0.581109
266888351	H	0.12435	0.107473	0.357553
266888351	C	0.203415	0.338729	0.585391
266888351	O	0.224989	0.108647	0.351315
266888351	C	0.196855	0.130772	0.349783
266888351	O	0.187155	0.336147	0.35821
266888351	C	0.140924	0.100717	0.451968
266888351	C	0.0992207	0.242608	0.540586
266888351	C	0.114581	0.144619	0.37377
266888351	C	0.101887	0.32066	0.35098
266888351	O	0.239412	0.338238	0.43044
266888351	H	0.247109	0.336595	0.442623
266888351	C	0.110118	0.100803	0.533074
266888351	H	0.258312	0.16564	0.383234
266888351	C	0.101104	0.309107	0.526071
266888351	C	0.110178	0.113376	0.35323
266888351	O	0.25459	0.165256	0.535929
266888351	C	0.223699	0.33108	0.590982
266888351	O	0.257704	0.136406	0.570712
266888351	H	0.252859	0.179886	0.538949
266888351	H	0.248967	0.213637	0.475626
266888351	H	0.261132	0.212593	0.455531
266888351	C	0.198089	0.27423	0.591794
266888351	O	0.095532	0.338142	0.348009
266888351	H	0.147496	0.340727	0.448138
266888351	C	0.255272	0.343952	0.390941
266888351	O	0.220233	0.342056	0.384163
266888351	C	0.422993	0.236166	0.527894
266888351	H	0.1179	0.168244	0.388912
266888351	H	0.200821	0.223202	0.587774
266888351	C	0.123284	0.098375	0.549784
266888351	H	0.183715	0.209599	0.578019
266888351	Fe	0.424854	0.178599	0.567248
266888351	C	0.166621	0.337704	0.592841
266888351	C	0.0994231	0.118406	0.529204
266888351	H	0.324471	0.095476	0.38219
266888351	C	0.202064	0.34198	0.501905
266888351	C	0.206495	0.110973	0.346104
266888351	C	0.103111	0.131438	0.360803
266888351	H	0.216016	0.099274	0.504556
266888351	H	0.261728	0.164196	0.523022
266888351	H	0.383272	0.255035	0.345571
266888351	O	0.106895	0.161264	0.381973
266888351	C	0.417527	0.119023	0.590916
266888351	C	0.171709	0.157855	0.344959
266888351	Fe	0.132398	0.239722	0.346812
266888351	C	0.0956159	0.220188	0.490461
266888351	H	0.260082	0.137969	0.481151
266888351	O	0.375231	0.096079	0.384932
266888351	H	0.196941	0.328282	0.349899
266888351	O	0.349515	0.214535	0.520971
266888351	C	0.342198	0.339546	0.480758
266888351	C	0.422836	0.139917	0.589465
266888351	C	0.298084	0.188628	0.534166
266888351	C	0.308035	0.227863	0.496288
266888351	F	0.363338	0.263977	0.526862
266888351	H	0.261143	0.335512	0.542583
266888351	F	0.426819	0.171585	0.541001
266888351	C	0.311955	0.21648	0.479399
266888351	O	0.422678	0.0997349	0.542004
266888351	H	0.422256	0.202834	0.464157
266888351	C	0.289137	0.343346	0.401654
266888351	H	0.348066	0.167732	0.589383
266888351	C	0.330915	0.341846	0.571049
266888351	O	0.426294	0.135481	0.517102
266888351	C	0.343222	0.129867	0.556586
266888351	O	0.40057	0.134206	0.441683
266888351	O	0.267566	0.156858	0.347026
266888351	O	0.326825	0.273909	0.543743
266888351	H	0.285402	0.310631	0.367297
266888351	C	0.346781	0.328889	0.566094
266888351	O	0.319459	0.315448	0.467357
266888351	H	0.40392	0.29093	0.47668
266888351	C	0.373875	0.112617	0.534474
266888351	Fe	0.39317	0.184086	0.447384
266888351	O	0.416343	0.30777	0.433491
266888351	C	0.414759	0.296657	0.418136
266888351	O	0.338468	0.179603	0.412842
266888351	C	0.358643	0.32603	0.479191
266888351	O	0.403347	0.219479	0.574081
266888351	O	0.407788	0.113572	0.484421
266888351	O	0.300885	0.143479	0.569105
266888351	O	0.279473	0.309832	0.514545
266888351	C	0.375196	0.145559	0.554205
266888351	O	0.414223	0.162442	0.450784
266888351	H	0.380754	0.213611	0.544297
266888351	O	0.382417	0.185599	0.592342
266888351	C	0.414869	0.122222	0.350202
266888351	C	0.275127	0.16571	0.409393
266888351	H	0.299847	0.316518	0.550598
266888351	C	0.347181	0.275397	0.348993
266888351	C	0.265261	0.106516	0.504487
266888351	C	0.3633	0.128284	0.548749
266888351	O	0.414367	0.265294	0.576903
266888351	H	0.299766	0.274237	0.39591
266888351	O	0.379704	0.327274	0.384129
266888351	O	0.357608	0.145361	0.455054
266888351	C	0.420153	0.304461	0.398444
266888351	O	0.314714	0.172688	0.577658
266888351	C	0.338649	0.111531	0.495669
266888351	O	0.267547	0.305129	0.563684
266888351	H	0.294143	0.169313	0.433355
266888351	O	0.324844	0.341041	0.403561
266888351	H	0.345637	0.203033	0.385238
266888351	C	0.376362	0.330615	0.489051
266888351	C	0.365705	0.282576	0.441189
266888351	O	0.317606	0.21356	0.583135
266888351	H	0.356348	0.312564	0.470896
266888351	O	0.355085	0.301949	0.531142
266888351	O	0.339345	0.28245	0.394591
266888351	C	0.266537	0.276415	0.516194
266888351	Fe	0.367333	0.183633	0.40354
266888351	F	0.366665	0.114941	0.429507
266888351	H	0.409266	0.192506	0.4809
266888351	C	0.37287	0.126984	0.356777
266888351	H	0.415297	0.144186	0.515414
266888351	H	0.29172	0.280151	0.532277
266888351	H	0.273371	0.224033	0.565199
266888351	H	0.366326	0.298308	0.44232
266888351	O	0.379572	0.32936	0.352653
266888351	O	0.356918	0.196835	0.378088
266888351	C	0.312596	0.248385	0.496403
266888351	C	0.416417	0.241262	0.508909
266888351	C	0.398183	0.234378	0.501697
266888351	H	0.327183	0.208681	0.572871
266888351	H	0.289185	0.136008	0.521962
266888351	C	0.368371	0.218358	0.432907
266888351	F	0.267829	0.102189	0.355365
266888351	O	0.416976	0.150019	0.57478
266888351	O	0.294442	0.170633	0.535481
266888351	O	0.319422	0.294921	0.505039
266888351	H	0.319367	0.146807	0.377617
266888351	C	0.313482	0.332909	0.581644
266888351	O	0.341798	0.147256	0.417525
266888351	O	0.308089	0.313429	0.40054
266888351	H	0.299944	0.262128	0.375183
266888351	Fe	0.415105	0.107404	0.513401
266888351	C	0.387065	0.137851	0.368189
266888351	C	0.321017	0.330963	0.477229
266888351	O	0.297533	0.312129	0.359729
266888351	C	0.320146	0.100099	0.497234
266888351	C	0.351897	0.320837	0.531226
266888351	O	0.329255	0.253345	0.504796
266888351	C	0.392297	0.105313	0.478572
266888351	O	0.396401	0.18759	0.394707
266888351	O	0.298828	0.275414	0.380966
266888351	H	0.290987	0.121086	0.539884
266888351	O	0.282717	0.132817	0.534681
266888351	O	0.3747	0.208373	0.447825
266888351	C	0.411967	0.191429	0.404656
266888351	C	0.37358	0.11369	0.484129
266888351	O	0.308659	0.30659	0.54387
266888351	C	0.272823	0.295001	0.504298
266888351	O	0.272344	0.10503	0.487266
266888351	C	0.310462	0.159052	0.406641
266888351	Fe	0.371741	0.141763	0.42873
266888351	C	0.369853	0.249405	0.454658
266888351	C	0.361539	0.155657	0.470312
266888351	H	0.418633	0.143467	0.372627
266888351	F	0.290641	0.101492	0.451016
266888351	O	0.279135	0.293653	0.4867
266888351	O	0.40648	0.27736	0.419422
266888351	O	0.298223	0.280061	0.450764
266888351	O	0.271673	0.177492	0.573339
266888351	H	0.301229	0.326315	0.359913
266888351	O	0.338871	0.328589	0.519318
266888351	O	0.307297	0.333479	0.490571
266888351	C	0.356941	0.143832	0.489126
266888351	Fe	0.341881	0.278572	0.516486
266888351	C	0.407781	0.135126	0.364848
266888351	C	0.389581	0.221777	0.533931
266888351	C	0.359371	0.275426	0.423207
266888351	C	0.311399	0.195253	0.479776
266888351	C	0.272162	0.162211	0.389435
266888351	O	0.377081	0.17013	0.427498
266888351	H	0.403156	0.263826	0.585236
266888351	H	0.40518	0.273666	0.433936
266888351	Fe	0.351462	0.332886	0.393796
266888351	H	0.355927	0.247801	0.40616
266888351	O	0.396054	0.182118	0.562341
266888351	H	0.308137	0.170835	0.499834
266888351	O	0.335107	0.277846	0.469532
266888351	H	0.30396	0.159896	0.47068
266888351	C	0.330961	0.162384	0.413839
266888351	C	0.306385	0.186567	0.497487
266888351	O	0.275246	0.219319	0.579517
266888351	H	0.403182	0.28375	0.380693
266888351	C	0.384365	0.224972	0.514232
266888351	C	0.415342	0.217492	0.559432
266888351	C	0.302121	0.219031	0.513946
266888351	C	0.366554	0.241157	0.435732
266888351	C	0.288167	0.156317	0.377604
266888351	O	0.298427	0.199553	0.549756
266888351	Fe	0.319613	0.297517	0.37655
266888351	O	0.367046	0.158471	0.386771
266888351	O	0.408539	0.31965	0.498833
266888351	H	0.286529	0.271389	0.454394
266888351	C	0.316291	0.153865	0.573242
266888351	C	0.271654	0.33359	0.397368
266888351	C	0.306999	0.152664	0.386593
266888351	O	0.287487	0.283225	0.580268
266888351	O	0.352693	0.307467	0.411456
266888351	O	0.408725	0.200186	0.468275
266888351	O	0.30149	0.260368	0.487567
266888351	H	0.300408	0.227781	0.527335
266888351	O	0.366071	0.2106	0.41629
266888351	O	0.359538	0.28104	0.490996
266888351	O	0.315537	0.163873	0.462671
266888351	O	0.389012	0.119177	0.525919
266888351	C	0.380292	0.145213	0.38684
266888351	C	0.293672	0.165497	0.417668
266888351	O	0.325257	0.19183	0.447568
266888351	C	0.393504	0.316337	0.48801
266888351	C	0.369151	0.16054	0.567958
266888351	C	0.338671	0.133032	0.494253
266888351	H	0.331715	0.119503	0.55499
266888351	H	0.329649	0.260469	0.547846
266888351	C	0.278082	0.273668	0.533043
266888351	C	0.351664	0.158067	0.577701
266888351	C	0.37471	0.133431	0.490456
266888351	C	0.353116	0.276141	0.474368
266888351	H	0.339359	0.206368	0.514499
266888351	Fe	0.309286	0.287164	0.478879
266888351	H	0.315923	0.225202	0.466321
266888351	H	0.388443	0.140466	0.489721
266888351	O	0.385169	0.136497	0.402858
266888351	H	0.348357	0.313925	0.572429
266888351	C	0.275229	0.287508	0.566234
266888351	C	0.350337	0.288912	0.408912
266888351	C	0.382351	0.177444	0.574934
266888351	C	0.38426	0.336746	0.368567
266888351	C	0.337545	0.145905	0.570613
266888351	Fe	0.308847	0.319047	0.516535
266888351	O	0.374349	0.170228	0.469756
266888351	H	0.350608	0.185695	0.37121
266888351	H	0.388825	0.148293	0.546278
266888351	Fe	0.266683	0.33083	0.578369
266888351	O	0.362604	0.211479	0.489167
266888351	H	0.357062	0.127907	0.359864
266888351	H	0.395404	0.238571	0.486812
266888351	H	0.320479	0.310279	0.550567
266888351	C	0.357049	0.33331	0.548221
266888351	H	0.418646	0.216222	0.373874
266888351	C	0.36438	0.217379	0.507015
266888351	C	0.30116	0.198117	0.514644
266888351	O	0.329362	0.280308	0.354277
266888351	C	0.413649	0.296284	0.380941
266888351	H	0.281831	0.229752	0.586595
266888351	C	0.356519	0.102889	0.487642
266888351	O	0.296125	0.338096	0.577075
266888351	C	0.360146	0.254312	0.42032
266888351	C	0.409687	0.225728	0.540127
266888351	C	0.285963	0.153664	0.355691
266888351	C	0.308312	0.332094	0.402335
266888351	H	0.325222	0.141391	0.497227
266888351	C	0.269495	0.271879	0.551607
266888351	O	0.340612	0.318293	0.371308
266888351	C	0.41531	0.144425	0.447667
266888351	C	0.366304	0.269754	0.457934
266888351	Fe	0.29368	0.194864	0.578442
266888351	C	0.420153	0.301854	0.362289
266888351	O	0.39262	0.300178	0.474688
266888351	H	0.307024	0.270803	0.443988
266888351	Fe	0.276672	0.155071	0.554408
266888351	O	0.41251	0.194038	0.423407
266888351	H	0.37113	0.240897	0.467794
266888351	H	0.271678	0.316956	0.400054
266888351	C	0.316479	0.183872	0.462187
266888351	O	0.3602	0.289027	0.346205
266888351	H	0.218971	0.342129	0.530161
266888351	H	0.100474	0.131948	0.539689
266888351	O	0.315917	0.318035	0.593071
266888351	H	0.174791	0.32854	0.355892
266888351	O	0.300742	0.146117	0.346157
266888351	C	0.379548	0.111173	0.344932
266888351	O	0.167623	0.162781	0.742535
266888351	O	0.178469	0.19222	0.737142
266888351	C	0.167193	0.177638	0.732577
266888351	O	0.163602	0.217116	0.770049
266888351	O	0.128901	0.145539	0.749078
266888351	O	0.135519	0.188377	0.761092
266888351	H	0.136872	0.19593	0.773411
266888351	H	0.125729	0.133484	0.756528
266888351	F	0.201321	0.218531	0.754598
266888351	O	0.110653	0.138895	0.695259
266888351	Fe	0.112818	0.111502	0.705215
266888351	O	0.141626	0.116496	0.713497
266888351	Fe	0.230539	0.129285	0.71685
266888351	O	0.223094	0.150642	0.696641
266888351	O	0.235206	0.141658	0.658457
266888351	H	0.221912	0.136014	0.66102
266888351	F	0.22526	0.146	0.738631
266888351	O	0.131537	0.169843	0.669665
266888351	O	0.158744	0.184623	0.656716
266888351	C	0.150455	0.170444	0.666033
266888351	Fe	0.146464	0.206489	0.639192
266888351	O	0.133096	0.228537	0.622742
266888351	O	0.124763	0.211744	0.6578
266888351	Fe	0.119824	0.238446	0.668739
266888351	O	0.165701	0.226564	0.650522
266888351	O	0.147172	0.251197	0.660715
266888351	C	0.162514	0.245004	0.651267
266888351	O	0.127824	0.227253	0.695573
266888351	C	0.117484	0.211372	0.701269
266888351	C	0.136246	0.16571	0.714857
266888351	C	0.149192	0.182113	0.72109
266888351	C	0.120866	0.203135	0.721359
266888351	C	0.141022	0.201295	0.72322
266888351	C	0.115181	0.167992	0.714042
266888351	H	0.149582	0.214316	0.727074
266888351	H	0.14345	0.151803	0.710202
266888351	C	0.184525	0.257798	0.623067
266888351	C	0.177605	0.260077	0.642564
266888351	H	0.179389	0.245994	0.614449
266888351	C	0.118275	0.258201	0.612745
266888351	C	0.171357	0.142919	0.686419
266888351	C	0.179326	0.113572	0.66751
266888351	C	0.162801	0.151488	0.668489
266888351	C	0.175137	0.124003	0.650707
266888351	C	0.168407	0.143338	0.651442
266888351	C	0.180878	0.123028	0.685406
266888351	H	0.164015	0.150311	0.637461
266888351	H	0.17377	0.151685	0.69971
266888351	C	0.117042	0.138486	0.640443
266888351	C	0.13593	0.112008	0.626625
266888351	C	0.122926	0.151553	0.625673
266888351	C	0.14287	0.12595	0.61074
266888351	C	0.123324	0.118571	0.641207
266888351	H	0.211895	0.157635	0.702497
266888351	H	0.236092	0.155083	0.664125
266888351	C	0.182003	0.115578	0.631695
266888351	O	0.224244	0.232245	0.724255
266888351	C	0.243611	0.203333	0.722685
266888351	C	0.226806	0.215529	0.716382
266888351	O	0.200627	0.330658	0.641569
266888351	O	0.13525	0.313353	0.662276
266888351	O	0.17634	0.320555	0.660378
266888351	C	0.189797	0.31677	0.648225
266888351	O	0.228788	0.327769	0.608618
266888351	O	0.235792	0.317702	0.649334
266888351	H	0.238461	0.305174	0.656049
266888351	Fe	0.142994	0.325268	0.752987
266888351	O	0.123189	0.30296	0.74526
266888351	O	0.163373	0.305499	0.742495
266888351	O	0.189794	0.310438	0.759503
266888351	C	0.180802	0.312564	0.743327
266888351	C	0.201297	0.289808	0.624285
266888351	C	0.192082	0.295079	0.641946
266888351	C	0.182002	0.278776	0.65241
266888351	C	0.196363	0.273252	0.614084
266888351	H	0.20914	0.301688	0.616869
266888351	H	0.174171	0.282217	0.666307
266888351	H	0.165752	0.320083	0.705844
266888351	Fe	0.186979	0.197867	0.766345
266888351	O	0.196692	0.208246	0.793633
266888351	C	0.186658	0.207738	0.809032
266888351	O	0.178451	0.192192	0.815196
266888351	O	0.131292	0.160231	0.78881
266888351	O	0.151144	0.165773	0.813703
266888351	C	0.133955	0.165749	0.806042
266888351	Fe	0.149878	0.161189	0.76529
266888351	O	0.170535	0.175651	0.778391
266888351	Fe	0.179049	0.164782	0.803252
266888351	O	0.211763	0.180035	0.765364
266888351	O	0.208211	0.167787	0.795562
266888351	C	0.218899	0.171461	0.780578
266888351	O	0.178739	0.136403	0.794074
266888351	O	0.160561	0.133527	0.767404
266888351	C	0.173929	0.127402	0.778043
266888351	H	0.116316	0.154167	0.749584
266888351	O	0.226318	0.121817	0.821341
266888351	C	0.118225	0.177007	0.81654
266888351	C	0.248345	0.152532	0.791465
266888351	C	0.251853	0.187252	0.780721
266888351	C	0.240761	0.169523	0.781542
266888351	H	0.244708	0.201497	0.776952
266888351	H	0.237526	0.141749	0.795833
266888351	C	0.177464	0.242549	0.807415
266888351	C	0.17976	0.225845	0.819002
266888351	C	0.164218	0.257431	0.81398
266888351	H	0.18276	0.243024	0.792368
266888351	H	0.164852	0.229785	0.762357
266888351	H	0.120759	0.184693	0.76053
266888351	H	0.178081	0.299361	0.823828
266888351	O	0.170504	0.279748	0.788686
266888351	O	0.140294	0.28053	0.804686
266888351	C	0.157659	0.272992	0.801072
266888351	Fe	0.177116	0.30951	0.788362
266888351	O	0.148182	0.314151	0.780695
266888351	Fe	0.124746	0.305221	0.797115
266888351	O	0.134686	0.317846	0.823313
266888351	O	0.206218	0.303457	0.79744
266888351	O	0.171771	0.311463	0.817721
266888351	H	0.181258	0.321697	0.823612
266888351	H	0.214378	0.308005	0.785462
266888351	H	0.211461	0.311725	0.808047
266888351	C	0.246733	0.185664	0.711337
266888351	H	0.237821	0.181232	0.698076
266888351	O	0.2121	0.206806	0.705419
266888351	H	0.200541	0.215737	0.703569
266888351	C	0.186394	0.328349	0.729294
266888351	H	0.142541	0.110636	0.727105
266888351	H	0.211781	0.12465	0.784684
266888351	C	0.10804	0.185394	0.723389
266888351	O	0.102379	0.117591	0.734032
266888351	O	0.109617	0.331314	0.792451
266888351	C	0.109957	0.195474	0.810836
266888351	C	0.101844	0.152191	0.704863
266888351	O	0.113691	0.118036	0.823792
266888351	O	0.187493	0.151575	0.828396
266888351	C	0.13588	0.145469	0.610839
266888351	H	0.240474	0.327081	0.659924
266888351	O	0.24628	0.284251	0.62121
266888351	O	0.132686	0.185816	0.621474
266888351	C	0.1202	0.242947	0.626261
266888351	O	0.200765	0.121977	0.715741
266888351	C	0.204825	0.11015	0.783338
266888351	C	0.185225	0.108598	0.775952
266888351	H	0.148821	0.107767	0.703925
266888351	C	0.115368	0.107518	0.659317
266888351	Fe	0.253507	0.315611	0.624646
266888351	F	0.166347	0.203728	0.621405
266888351	O	0.237881	0.113406	0.693053
266888351	C	0.19436	0.112624	0.701152
266888351	O	0.191974	0.126843	0.620165
266888351	C	0.120154	0.173494	0.62751
266888351	H	0.110457	0.144562	0.653824
266888351	H	0.113702	0.203504	0.79734
266888351	C	0.156437	0.256431	0.833294
266888351	O	0.124421	0.106924	0.675977
266888351	O	0.216371	0.269156	0.818573
266888351	O	0.113539	0.266098	0.680079
266888351	Fe	0.10659	0.190527	0.663414
266888351	O	0.111316	0.246794	0.643018
266888351	O	0.106602	0.20067	0.69071
266888351	O	0.104562	0.179616	0.634909
266888351	C	0.104655	0.273542	0.614288
266888351	C	0.23764	0.116598	0.616669
266888351	H	0.176235	0.142619	0.830441
266888351	H	0.121536	0.31928	0.662708
266888351	H	0.134325	0.304679	0.650458
266888351	H	0.188157	0.323315	0.608855
266888351	O	0.152551	0.32498	0.62306
266888351	O	0.110096	0.292711	0.773009
266888351	C	0.108074	0.300974	0.755969
266888351	H	0.252309	0.233317	0.611668
266888351	C	0.110371	0.167654	0.83288
266888351	O	0.240017	0.108491	0.737422
266888351	C	0.170149	0.22431	0.837623
266888351	C	0.214403	0.255699	0.833782
266888351	C	0.218633	0.104626	0.818087
266888351	H	0.198535	0.142233	0.824351
266888351	H	0.113359	0.152107	0.836118
266888351	O	0.219602	0.237234	0.831151
266888351	O	0.256814	0.197032	0.60985
266888351	H	0.221201	0.261476	0.806741
266888351	C	0.175299	0.332384	0.712372
266888351	H	0.134436	0.307491	0.833993
266888351	H	0.246185	0.127267	0.626212
266888351	Fe	0.257033	0.123841	0.673002
266888351	O	0.258696	0.261317	0.811164
266888351	C	0.102452	0.287267	0.599228
266888351	O	0.249159	0.101549	0.653934
266888351	O	0.245249	0.3012	0.704525
266888351	H	0.254554	0.223116	0.745338
266888351	C	0.256698	0.208929	0.73753
266888351	F	0.138456	0.33509	0.727608
266888351	C	0.15161	0.337444	0.6087
266888351	H	0.139047	0.155917	0.598799
266888351	H	0.145932	0.266698	0.839625
266888351	O	0.257787	0.147788	0.83306
266888351	H	0.0999832	0.332508	0.803324
266888351	C	0.392353	0.0958521	0.766891
266888351	H	0.246105	0.311139	0.739166
266888351	H	0.120345	0.341305	0.795168
266888351	Fe	0.152394	0.336634	0.651574
266888351	H	0.0954855	0.315464	0.720276
266888351	H	0.264888	0.269334	0.801672
266888351	O	0.0981626	0.0993559	0.658202
266888351	C	0.408695	0.342737	0.694366
266888351	H	0.0966284	0.104411	0.779248
266888351	O	0.249381	0.153456	0.599176
266888351	H	0.280913	0.185207	0.843667
266888351	O	0.100313	0.294683	0.814707
266888351	H	0.114559	0.265604	0.694749
266888351	H	0.184403	0.0990066	0.667181
266888351	H	0.211555	0.33796	0.747435
266888351	O	0.25495	0.320318	0.731813
266888351	O	0.25931	0.138235	0.718245
266888351	H	0.0982711	0.306701	0.82193
266888351	C	0.427235	0.102569	0.842774
266888351	O	0.424559	0.120598	0.84424
266888351	C	0.398969	0.216639	0.782829
266888351	H	0.107151	0.285039	0.824883
266888351	C	0.201574	0.342361	0.735118
266888351	H	0.366739	0.256675	0.832726
266888351	Fe	0.417804	0.0986795	0.79962
266888351	C	0.23229	0.0972654	0.647479
266888351	F	0.310853	0.110364	0.843685
266888351	H	0.202568	0.293384	0.84395
266888351	C	0.423933	0.112924	0.646361
266888351	C	0.0956178	0.120056	0.819284
266888351	F	0.220743	0.183223	0.598474
266888351	H	0.105032	0.220738	0.759819
266888351	H	0.099994	0.271993	0.677626
266888351	H	0.341826	0.338019	0.781933
266888351	H	0.296275	0.205231	0.69463
266888351	O	0.179256	0.0958481	0.625833
266888351	Fe	0.309475	0.201211	0.824521
266888351	H	0.349543	0.104648	0.819382
266888351	O	0.355031	0.2599	0.841017
266888351	H	0.418863	0.247669	0.72716
266888351	C	0.260443	0.172115	0.717604
266888351	C	0.228795	0.100372	0.625373
266888351	H	0.371838	0.221733	0.617084
266888351	H	0.261269	0.241647	0.70688
266888351	C	0.39554	0.175434	0.660079
266888351	O	0.199698	0.0946553	0.698678
266888351	C	0.372195	0.145444	0.838353
266888351	C	0.0948113	0.204758	0.822694
266888351	C	0.257769	0.313436	0.712762
266888351	H	0.256896	0.271544	0.822651
266888351	O	0.0969421	0.23289	0.757377
266888351	C	0.289729	0.222332	0.643882
266888351	O	0.386037	0.277191	0.791401
266888351	C	0.394169	0.342478	0.661883
266888351	O	0.266054	0.244817	0.721094
266888351	O	0.387559	0.136623	0.842663
266888351	O	0.271386	0.314685	0.602879
266888351	C	0.210429	0.0975794	0.798332
266888351	H	0.290867	0.130058	0.656578
266888351	H	0.331894	0.215096	0.763131
266888351	O	0.410232	0.103864	0.658115
266888351	O	0.278744	0.103436	0.68249
266888351	C	0.352002	0.278377	0.747902
266888351	C	0.262262	0.234898	0.624613
266888351	C	0.261385	0.271993	0.623329
266888351	C	0.262145	0.25343	0.63513
266888351	C	0.263866	0.152609	0.707239
266888351	O	0.264958	0.148979	0.6886
266888351	H	0.311568	0.342075	0.663404
266888351	C	0.423001	0.310241	0.706354
266888351	O	0.34309	0.341672	0.826692
266888351	H	0.277607	0.146617	0.652015
266888351	H	0.371987	0.195962	0.659457
266888351	C	0.28198	0.205886	0.792807
266888351	O	0.282569	0.1297	0.822378
266888351	C	0.387093	0.182761	0.782338
266888351	C	0.288597	0.239384	0.656821
266888351	O	0.410986	0.164925	0.630118
266888351	H	0.361059	0.275888	0.734974
266888351	F	0.310498	0.173295	0.824954
266888351	H	0.2696	0.297855	0.67885
266888351	C	0.274998	0.219268	0.629657
266888351	H	0.417187	0.192324	0.778892
266888351	O	0.331098	0.264488	0.711869
266888351	O	0.410035	0.102538	0.770966
266888351	O	0.362113	0.238593	0.72023
266888351	C	0.398644	0.335788	0.741563
266888351	O	0.380851	0.321098	0.628558
266888351	C	0.290951	0.320078	0.668767
266888351	O	0.410558	0.274298	0.824636
266888351	H	0.356406	0.180154	0.788279
266888351	C	0.273911	0.200977	0.616239
266888351	C	0.279378	0.169173	0.794039
266888351	O	0.399042	0.162454	0.807849
266888351	O	0.418668	0.127153	0.635606
266888351	C	0.400493	0.310806	0.677988
266888351	Fe	0.28352	0.244916	0.818052
266888351	O	0.422972	0.235883	0.799255
266888351	C	0.392404	0.162851	0.789731
266888351	O	0.352638	0.212608	0.687188
266888351	C	0.381179	0.187608	0.668369
266888351	O	0.322092	0.267262	0.81643
266888351	O	0.33721	0.201626	0.812812
266888351	O	0.385868	0.290447	0.6441
266888351	F	0.348945	0.129459	0.786765
266888351	C	0.273862	0.254268	0.652516
266888351	C	0.30251	0.241522	0.67445
266888351	H	0.311717	0.170948	0.710724
266888351	C	0.186356	0.333048	0.5969
266888351	H	0.274498	0.267978	0.661686
266888351	O	0.323621	0.179282	0.706979
266888351	C	0.416651	0.330981	0.750848
266888351	C	0.386485	0.311144	0.64348
266888351	C	0.409224	0.321341	0.693598
266888351	O	0.29527	0.247528	0.690789
266888351	O	0.416801	0.239723	0.766225
266888351	C	0.270244	0.143964	0.819713
266888351	H	0.377649	0.237915	0.793692
266888351	O	0.307454	0.22968	0.824368
266888351	H	0.415904	0.151682	0.664166
266888351	H	0.344815	0.334734	0.668051
266888351	H	0.408856	0.268327	0.723348
266888351	O	0.273212	0.304791	0.644237
266888351	C	0.321498	0.267251	0.727733
266888351	O	0.295543	0.220959	0.745614
266888351	O	0.2679	0.234451	0.842527
266888351	C	0.41552	0.147388	0.704829
266888351	O	0.360459	0.200365	0.717494
266888351	O	0.385883	0.147587	0.780296
266888351	O	0.421337	0.261878	0.728855
266888351	O	0.320206	0.235139	0.674809
266888351	H	0.380473	0.301484	0.818619
266888351	O	0.363515	0.102099	0.815635
266888351	Fe	0.295384	0.233136	0.717916
266888351	O	0.391267	0.311081	0.815556
266888351	O	0.290085	0.193343	0.608651
266888351	Fe	0.339599	0.237464	0.699047
266888351	O	0.280298	0.196829	0.834554
266888351	O	0.27279	0.221661	0.799328
266888351	C	0.380661	0.275716	0.773386
266888351	H	0.353471	0.179097	0.83438
266888351	Fe	0.33077	0.243513	0.832614
266888351	C	0.393943	0.321387	0.661233
266888351	H	0.377551	0.286128	0.633126
266888351	C	0.401384	0.178289	0.639228
266888351	O	0.401137	0.121347	0.807056
266888351	C	0.34649	0.278259	0.783955
266888351	H	0.351792	0.274919	0.799152
266888351	F	0.356544	0.251764	0.683564
266888351	O	0.285183	0.208432	0.703173
266888351	H	0.300614	0.21184	0.647389
266888351	O	0.412284	0.145835	0.723179
266888351	O	0.342245	0.215408	0.7534
266888351	O	0.344781	0.173018	0.74457
266888351	H	0.401105	0.294933	0.678316
266888351	Fe	0.409861	0.291795	0.800152
266888351	H	0.334871	0.332216	0.819167
266888351	H	0.385119	0.172163	0.716751
266888351	H	0.2663	0.259936	0.721755
266888351	C	0.315468	0.266903	0.798281
266888351	C	0.327027	0.275769	0.781512
266888351	C	0.388452	0.17303	0.701046
266888351	H	0.4005	0.113518	0.661834
266888351	H	0.39101	0.324433	0.732948
266888351	C	0.272417	0.195504	0.741453
266888351	O	0.182066	0.339747	0.787249
266888351	H	0.295113	0.167392	0.797319
266888351	O	0.406884	0.309988	0.775002
266888351	H	0.372206	0.249434	0.718114
266888351	C	0.379913	0.223239	0.787807
266888351	C	0.400354	0.111161	0.601427
266888351	H	0.275121	0.212987	0.69405
266888351	C	0.319152	0.278369	0.762294
266888351	C	0.266983	0.153148	0.799642
266888351	O	0.354923	0.335086	0.679409
266888351	C	0.37842	0.187227	0.689372
266888351	C	0.301609	0.337281	0.67447
266888351	O	0.322648	0.221182	0.715922
266888351	O	0.343947	0.233736	0.80708
266888351	Fe	0.333025	0.197329	0.730996
266888351	O	0.30057	0.202996	0.795635
266888351	C	0.417722	0.311369	0.75958
266888351	C	0.289492	0.31199	0.647836
266888351	O	0.393849	0.274813	0.759679
266888351	H	0.303362	0.275698	0.759817
266888351	O	0.30721	0.190987	0.745202
266888351	H	0.347633	0.327967	0.690457
266888351	C	0.40533	0.160976	0.671754
266888351	C	0.359724	0.27868	0.767974
266888351	Fe	0.411449	0.140884	0.825639
266888351	O	0.279402	0.276414	0.618803
266888351	O	0.305818	0.257198	0.732114
266888351	O	0.300494	0.256299	0.793769
266888351	H	0.390739	0.121181	0.609144
266888351	C	0.36845	0.189369	0.787673
266888351	O	0.36522	0.144898	0.820664
266888351	Fe	0.294984	0.298419	0.606024
266888351	C	0.402068	0.196561	0.778047
266888351	C	0.278144	0.311221	0.682871
266888351	C	0.270886	0.187573	0.78858
266888351	O	0.277591	0.13235	0.652037
266888351	C	0.282354	0.339006	0.704929
266888351	Fe	0.373507	0.124742	0.797614
266888351	C	0.365376	0.209784	0.79265
266888351	H	0.385581	0.321735	0.807377
266888351	C	0.346989	0.215746	0.80375
266888351	H	0.282853	0.166854	0.73816
266888351	H	0.356687	0.239966	0.733129
266888351	O	0.398398	0.19551	0.631433
266888351	C	0.271377	0.176377	0.734592
266888351	F	0.317749	0.282778	0.608713
266888351	C	0.362622	0.200724	0.698597
266888351	O	0.292575	0.268724	0.837231
266888351	C	0.292315	0.202521	0.746083
266888351	O	0.38312	0.228387	0.61051
266888351	O	0.376758	0.103804	0.773439
266888351	Fe	0.403127	0.205743	0.602413
266888351	C	0.402558	0.160385	0.692552
266888351	C	0.331212	0.277609	0.744972
266888351	H	0.345299	0.176215	0.758696
266888351	C	0.414253	0.231178	0.783415
266888351	C	0.273907	0.320663	0.700618
266888351	O	0.301603	0.312322	0.633746
266888351	H	0.359016	0.173938	0.740153
266888351	Fe	0.424332	0.269316	0.758501
266888351	H	0.350813	0.27266	0.834813
266888351	C	0.239337	0.119381	0.596417
266888351	O	0.286105	0.338857	0.841884
266888351	H	0.246793	0.0974161	0.777612
266888351	H	0.138742	0.0956442	0.625405
266888351	H	0.378071	0.234051	0.597826
266888351	H	0.0948261	0.274531	0.627682
266888351	O	0.421435	0.186305	0.595848
266888351	O	0.427614	0.269511	0.607523
266888351	O	0.426497	0.26864	0.669318
266888351	H	0.421383	0.273081	0.656681
266888351	O	0.427193	0.223318	0.611688
266888351	C	0.426802	0.274057	0.834485
266888351	C	0.130279	0.257458	0.597071
266888351	H	0.139654	0.244635	0.594616
266888351	O	0.309677	0.344482	0.789351
266888351	H	0.325185	0.208471	0.594792
266888351	H	0.135729	0.143532	0.923035
266888351	Fe	0.248532	0.237743	0.907931
266888351	O	0.219033	0.230766	0.90463
266888351	C	0.206342	0.243937	0.90665
266888351	O	0.202961	0.249905	0.923469
266888351	O	0.241669	0.266759	0.90039
266888351	O	0.218228	0.113974	0.865497
266888351	O	0.134857	0.1526	0.861297
266888351	O	0.149528	0.124778	0.853902
266888351	C	0.150064	0.142918	0.860225
266888351	Fe	0.118743	0.14331	0.883138
266888351	O	0.106836	0.125907	0.864855
266888351	O	0.131538	0.166899	0.899472
266888351	O	0.139867	0.121305	0.891872
266888351	H	0.139223	0.17416	0.888782
266888351	C	0.176725	0.16964	0.863825
266888351	C	0.192142	0.174606	0.896123
266888351	C	0.16797	0.151572	0.870866
266888351	C	0.180921	0.15873	0.903989
266888351	C	0.172511	0.145779	0.890295
266888351	C	0.191156	0.179156	0.876008
266888351	H	0.202057	0.182278	0.906501
266888351	H	0.169606	0.131961	0.896575
266888351	C	0.200936	0.256391	0.889421
266888351	C	0.128155	0.262567	0.932688
266888351	C	0.205213	0.193296	0.867434
266888351	O	0.220562	0.201968	0.877942
266888351	H	0.230927	0.206685	0.868898
266888351	C	0.157267	0.283098	0.943952
266888351	O	0.167863	0.290943	0.959496
266888351	O	0.2002	0.324774	0.873588
266888351	O	0.131994	0.312171	0.888194
266888351	O	0.173404	0.311871	0.885774
266888351	C	0.18952	0.309689	0.877462
266888351	H	0.233328	0.283309	0.93564
266888351	C	0.195928	0.289999	0.874885
266888351	C	0.195522	0.276669	0.891218
266888351	H	0.190244	0.281452	0.905776
266888351	H	0.128017	0.271444	0.918718
266888351	H	0.241219	0.268609	0.885661
266888351	O	0.158182	0.291545	0.927234
266888351	H	0.178443	0.300183	0.954741
266888351	O	0.181315	0.180887	0.967429
266888351	O	0.165357	0.188181	0.996746
266888351	C	0.181146	0.183318	0.986673
266888351	Fe	0.13497	0.179361	0.989911
266888351	O	0.120597	0.139069	0.973102
266888351	O	0.138179	0.207723	0.935018
266888351	O	0.126961	0.146039	0.933923
266888351	O	0.124296	0.206769	0.980786
266888351	Fe	0.160307	0.194008	0.950774
266888351	O	0.142761	0.173035	0.962485
266888351	Fe	0.145957	0.144254	0.956717
266888351	O	0.143368	0.15165	0.00328099
266888351	O	0.165284	0.141711	0.979977
266888351	C	0.157409	0.14009	0.997495
266888351	O	0.16981	0.146928	0.936902
266888351	O	0.180415	0.213826	0.939113
266888351	O	0.154562	0.213932	0.972925
266888351	O	0.164176	0.177648	0.926759
266888351	C	0.137433	0.219722	0.975767
266888351	C	0.172061	0.160848	0.924519
266888351	H	0.193555	0.207884	0.940442
266888351	H	0.177438	0.211891	0.924352
266888351	F	0.127369	0.186478	0.0159237
266888351	O	0.210782	0.251404	0.0746728
266888351	Fe	0.235343	0.249091	0.0580331
266888351	C	0.2264	0.20942	0.0402015
266888351	O	0.222252	0.222637	0.957162
266888351	C	0.235812	0.216799	0.969581
266888351	O	0.245762	0.247132	0.935426
266888351	Fe	0.219955	0.251257	0.948934
266888351	O	0.117163	0.211571	0.074258
266888351	C	0.165002	0.124827	0.0102343
266888351	C	0.172019	0.127633	0.0298808
266888351	H	0.170902	0.142019	0.0371986
266888351	C	0.176075	0.244545	0.0515695
266888351	C	0.141052	0.240289	0.0543579
266888351	C	0.144039	0.232625	0.0734819
266888351	C	0.179398	0.238832	0.0714332
266888351	H	0.126576	0.239283	0.0476804
266888351	C	0.235466	0.207758	0.00564219
266888351	C	0.205411	0.191925	0.01597
266888351	C	0.23174	0.20234	0.985457
266888351	C	0.201171	0.187114	0.995937
266888351	C	0.216341	0.188971	0.982025
266888351	C	0.223623	0.200767	0.020794
266888351	H	0.19473	0.18969	0.0273337
266888351	H	0.213864	0.185314	0.966801
266888351	C	0.145003	0.253849	0.962531
266888351	C	0.131568	0.237656	0.964942
266888351	C	0.112658	0.249647	0.936831
266888351	C	0.113346	0.237166	0.954125
266888351	C	0.143746	0.266189	0.946236
266888351	H	0.15803	0.255824	0.972175
266888351	H	0.123386	0.160423	0.933813
266888351	O	0.192811	0.254888	0.963081
266888351	O	0.219989	0.282276	0.941994
266888351	O	0.231263	0.257294	0.976575
266888351	C	0.244945	0.270496	0.979858
266888351	H	0.192953	0.265772	0.972838
266888351	H	0.191146	0.242381	0.97064
266888351	O	0.152541	0.305494	0.0462036
266888351	C	0.146357	0.31444	0.0618316
266888351	Fe	0.156172	0.321097	0.0202157
266888351	O	0.197782	0.314709	0.0465812
266888351	O	0.148576	0.295018	0.00464871
266888351	O	0.186298	0.314166	0.0154891
266888351	C	0.199754	0.310384	0.0279681
266888351	H	0.140768	0.300775	0.993299
266888351	H	0.136784	0.290224	0.010466
266888351	O	0.244262	0.32014	0.966645
266888351	C	0.116602	0.295399	0.0720179
266888351	C	0.125076	0.314025	0.0690105
266888351	C	0.157432	0.246179	0.0430981
266888351	H	0.189259	0.247696	0.0428577
266888351	C	0.238125	0.309476	0.0295739
266888351	C	0.220123	0.303373	0.0198247
266888351	C	0.243085	0.284726	0.996952
266888351	C	0.222923	0.291215	0.00251836
266888351	H	0.210344	0.285578	0.994401
266888351	H	0.235567	0.319796	0.0419379
266888351	H	0.222034	0.288785	0.95543
266888351	O	0.138926	0.252353	0.0143091
266888351	C	0.155143	0.25413	0.0235791
266888351	O	0.172066	0.262676	0.0150471
266888351	H	0.168768	0.26507	0.000855102
266888351	C	0.199611	0.23658	0.0769248
266888351	H	0.247824	0.30974	0.956588
266888351	O	0.206031	0.218225	0.0781851
266888351	Fe	0.234155	0.206058	0.0829015
266888351	Fe	0.12322	0.105606	0.850391
266888351	C	0.16295	0.232116	0.0822795
266888351	O	0.154941	0.224982	0.87562
266888351	H	0.173087	0.174979	0.849017
266888351	O	0.244466	0.232639	0.0798979
266888351	O	0.252384	0.226346	0.971501
266888351	O	0.236886	0.201996	0.0531299
266888351	O	0.249412	0.273228	0.06924
266888351	C	0.207442	0.250619	0.870647
266888351	O	0.146528	0.113576	0.952697
266888351	H	0.12858	0.198045	0.930239
266888351	H	0.138894	0.300965	0.893985
266888351	H	0.211059	0.234637	0.869109
266888351	H	0.12626	0.282826	0.0719015
266888351	C	0.250444	0.112518	0.0783464
266888351	Fe	0.152942	0.334888	0.886809
266888351	H	0.130209	0.309026	0.873778
266888351	H	0.243466	0.221565	0.00878233
266888351	O	0.223884	0.267667	0.0361819
266888351	C	0.256759	0.309258	0.0189839
266888351	C	0.25878	0.326912	0.00730194
266888351	H	0.121418	0.178174	0.903375
266888351	F	0.251549	0.23101	0.881252
266888351	C	0.202548	0.283467	0.856608
266888351	H	0.210166	0.270845	0.0394932
266888351	O	0.12595	0.326147	0.0229458
266888351	O	0.158496	0.324599	0.0718548
266888351	O	0.159591	0.336268	0.915955
266888351	C	0.169315	0.107015	0.99961
266888351	C	0.206349	0.263067	0.854038
266888351	O	0.219945	0.22679	0.0433539
266888351	O	0.191093	0.122215	0.0727876
266888351	C	0.183607	0.112072	0.0384076
266888351	C	0.113242	0.331677	0.0718428
266888351	C	0.196816	0.113523	0.0564602
266888351	C	0.105623	0.15107	0.973773
266888351	H	0.223702	0.257591	0.0252883
266888351	C	0.127608	0.223594	0.0839865
266888351	O	0.24284	0.336902	0.00568049
266888351	O	0.107776	0.16832	0.98155
266888351	C	0.142904	0.102994	0.887899
266888351	H	0.157379	0.108155	0.944357
266888351	O	0.253487	0.139864	0.875802
266888351	Fe	0.239292	0.130143	0.849317
266888351	H	0.130112	0.249623	0.88353
266888351	H	0.134067	0.107934	0.9462
266888351	O	0.236222	0.121968	0.0848977
266888351	O	0.255674	0.209693	0.915137
266888351	O	0.213944	0.105672	0.0555976
266888351	H	0.177493	0.107788	0.866383
266888351	Fe	0.181555	0.340064	0.0600496
266888351	H	0.100697	0.22621	0.956645
266888351	C	0.177099	0.338737	0.923647
266888351	O	0.19304	0.333731	0.914362
266888351	C	0.124105	0.102146	0.0669152
266888351	H	0.21283	0.150462	0.864176
266888351	C	0.148771	0.238004	0.863669
266888351	H	0.100796	0.123935	0.943868
266888351	O	0.101972	0.131199	0.906035
266888351	H	0.214322	0.328793	0.980436
266888351	O	0.199775	0.33368	0.0833311
266888351	O	0.220583	0.153683	0.851594
266888351	C	0.25998	0.292959	0.00747416
266888351	O	0.13718	0.117447	0.0630884
266888351	O	0.204788	0.195481	0.848584
266888351	F	0.224744	0.179262	0.083105
266888351	O	0.13434	0.251825	0.869714
266888351	O	0.105203	0.105294	0.0692377
266888351	C	0.248725	0.280959	0.0864999
266888351	H	0.128764	0.130157	0.0654762
266888351	H	0.164064	0.10462	0.984332
266888351	O	0.158025	0.337055	0.994492
266888351	H	0.0969622	0.310038	0.910797
266888351	O	0.255485	0.107369	0.84693
266888351	O	0.0969477	0.164266	0.876979
266888351	H	0.40949	0.172985	0.847038
266888351	O	0.101282	0.171603	0.0783699
266888351	O	0.260912	0.270478	0.9692
266888351	C	0.0956599	0.323455	0.99288
266888351	O	0.4258	0.156319	0.892233
266888351	C	0.178848	0.0997142	0.880059
266888351	F	0.229444	0.0963348	0.964746
266888351	H	0.100283	0.309415	0.000306662
266888351	H	0.171638	0.210635	0.846544
266888351	H	0.425566	0.170887	0.892799
266888351	O	0.360457	0.306203	0.0932828
266888351	C	0.216637	0.0976432	0.873795
266888351	C	0.10244	0.341582	0.00119662
266888351	O	0.263344	0.196875	0.0862039
266888351	C	0.259282	0.299286	0.091094
266888351	O	0.347333	0.34137	0.966375
266888351	H	0.15087	0.342744	0.953222
266888351	H	0.262364	0.247351	0.847996
266888351	O	0.281897	0.251308	0.0897108
266888351	H	0.398795	0.143288	0.949612
266888351	H	0.371349	0.0967334	0.0264057
266888351	O	0.148175	0.341257	0.856706
266888351	C	0.118328	0.342348	0.0168481
266888351	F	0.341276	0.0963679	0.944943
266888351	C	0.341928	0.295187	0.990417
266888351	O	0.164231	0.343742	0.036627
266888351	O	0.213729	0.342513	0.975347
266888351	C	0.291556	0.173765	0.936404
266888351	C	0.0966425	0.293785	0.0781873
266888351	O	0.343379	0.220606	0.847981
266888351	O	0.364557	0.0999803	0.0125778
266888351	C	0.384279	0.248185	0.0020463
266888351	C	0.360933	0.150769	0.874271
266888351	C	0.414175	0.314756	0.87106
266888351	H	0.297573	0.182353	0.947915
266888351	H	0.334502	0.104622	0.0547705
266888351	H	0.278446	0.229889	0.850657
266888351	C	0.373207	0.16144	0.0396762
266888351	C	0.353446	0.163803	0.889702
266888351	C	0.29209	0.315831	0.0936075
266888351	H	0.341893	0.145737	0.0662494
266888351	H	0.41543	0.150565	0.900576
266888351	H	0.116108	0.169277	0.080037
266888351	C	0.297799	0.338508	0.882536
266888351	H	0.332483	0.340033	0.969189
266888351	C	0.096235	0.177029	0.845332
266888351	O	0.293874	0.241584	0.969641
266888351	O	0.420727	0.277465	0.0136588
266888351	H	0.334668	0.186206	0.979692
266888351	C	0.342911	0.308524	0.0239835
266888351	C	0.362653	0.27736	0.0140083
266888351	H	0.356198	0.337846	0.978034
266888351	H	0.260066	0.17723	0.896948
266888351	O	0.310934	0.153997	0.96939
266888351	C	0.272292	0.141149	0.881343
266888351	Fe	0.269062	0.244303	0.952095
266888351	H	0.332774	0.307765	0.985153
266888351	C	0.34673	0.280582	0.976183
266888351	Fe	0.379982	0.289759	0.919981
266888351	Fe	0.337635	0.110003	0.968897
266888351	H	0.338958	0.192658	0.894176
266888351	C	0.325342	0.219743	0.079325
266888351	C	0.312753	0.316627	0.0892038
266888351	O	0.349756	0.169352	0.924574
266888351	C	0.279681	0.300338	0.0868283
266888351	H	0.262542	0.230244	0.0439846
266888351	H	0.347933	0.271872	0.0800653
266888351	C	0.317232	0.277843	0.90529
266888351	C	0.296809	0.272722	0.902533
266888351	H	0.265107	0.119501	0.0416776
266888351	C	0.412504	0.299357	0.857456
266888351	O	0.274358	0.329803	0.996205
266888351	O	0.353063	0.133124	0.0342579
266888351	C	0.357809	0.150798	0.0292678
266888351	H	0.394844	0.188932	0.981929
266888351	C	0.270568	0.203963	0.925955
266888351	H	0.272328	0.249805	0.0507408
266888351	Fe	0.331152	0.154179	0.993364
266888351	C	0.290163	0.140547	0.0472243
266888351	O	0.360389	0.274595	0.903304
266888351	C	0.320083	0.290516	0.872554
266888351	O	0.412529	0.222274	0.0434112
266888351	C	0.300972	0.149108	0.063178
266888351	C	0.347193	0.183235	0.884239
266888351	C	0.304843	0.213773	0.0802681
266888351	C	0.278393	0.152542	0.902071
266888351	H	0.411846	0.101919	0.880261
266888351	H	0.393431	0.139306	0.0134967
266888351	H	0.406552	0.195362	0.0732192
266888351	O	0.390493	0.331074	0.889934
266888351	O	0.330137	0.33478	0.926378
266888351	H	0.306446	0.330653	0.871498
266888351	O	0.33389	0.125612	0.994139
266888351	O	0.360566	0.298228	0.881241
266888351	C	0.402273	0.208464	0.0341765
266888351	H	0.356403	0.13627	0.929936
266888351	C	0.355386	0.157462	0.910703
266888351	O	0.404552	0.264275	0.0532367
266888351	H	0.303289	0.25006	0.961929
266888351	Fe	0.356254	0.326465	0.940952
266888351	O	0.389331	0.2461	0.0193146
266888351	O	0.342126	0.155692	0.0772272
266888351	C	0.311265	0.144516	0.951599
266888351	C	0.404276	0.14598	0.964518
266888351	O	0.332097	0.322459	0.896159
266888351	Fe	0.415777	0.218105	0.990851
266888351	F	0.413811	0.133529	0.0780393
266888351	C	0.384748	0.162413	0.0919955
266888351	C	0.361392	0.156501	0.854337
266888351	H	0.295703	0.213198	0.0664699
266888351	C	0.369877	0.140219	0.975001
266888351	C	0.381094	0.154089	0.0576604
266888351	C	0.298528	0.153726	0.934321
266888351	C	0.296291	0.143366	0.0827933
266888351	H	0.274726	0.270409	0.879658
266888351	C	0.418259	0.305089	0.982256
266888351	Fe	0.348462	0.306405	0.0656581
266888351	H	0.371891	0.111478	0.00751115
266888351	O	0.355286	0.226763	0.0586478
266888351	C	0.399419	0.314166	0.951661
266888351	O	0.358714	0.137652	0.915581
266888351	C	0.367052	0.262653	0.999376
266888351	O	0.323956	0.226676	0.0451732
266888351	O	0.40121	0.207242	0.015021
266888351	C	0.329461	0.283159	0.889089
266888351	Fe	0.417327	0.250608	0.0287832
266888351	O	0.377094	0.30788	0.0537301
266888351	F	0.351277	0.118432	0.0861999
266888351	C	0.279559	0.132233	0.0869912
266888351	O	0.394141	0.240056	0.987788
266888351	H	0.375833	0.140833	0.0615741
266888351	O	0.317861	0.201912	0.853209
266888351	H	0.330478	0.296249	0.859934
266888351	O	0.261583	0.244785	0.0419005
266888351	O	0.307105	0.152585	0.0157526
266888351	C	0.390034	0.167342	0.0715093
266888351	O	0.327749	0.184693	0.991992
266888351	C	0.380185	0.179639	0.0329328
266888351	H	0.375509	0.184839	0.0189836
266888351	C	0.302633	0.337804	0.902895
266888351	H	0.285975	0.288282	0.0791651
266888351	H	0.386274	0.297048	0.0580293
266888351	H	0.313141	0.158685	0.0604709
266888351	C	0.349569	0.293678	0.00953711
266888351	C	0.268989	0.123255	0.0715782
266888351	C	0.353884	0.175031	0.850356
266888351	O	0.334692	0.302568	0.0390739
266888351	O	0.350309	0.276132	0.0662661
266888351	O	0.285261	0.314731	0.957449
266888351	H	0.362887	0.252019	0.971038
266888351	O	0.39523	0.298579	0.894394
266888351	Fe	0.268343	0.339069	0.966649
266888351	H	0.364034	0.0976751	0.863474
266888351	Fe	0.336791	0.110764	0.0194943
266888351	O	0.319649	0.306278	0.0744931
266888351	C	0.392167	0.192395	0.0450353
266888351	H	0.298695	0.227772	0.96791
266888351	H	0.404229	0.300528	0.988283
266888351	H	0.415246	0.267318	0.0626703
266888351	C	0.322727	0.3311	0.9089
266888351	H	0.335065	0.192773	0.00195434
266888351	F	0.393874	0.266886	0.921127
266888351	O	0.351164	0.159137	0.0144692
266888351	O	0.282777	0.262485	0.933833
266888351	C	0.351155	0.285151	0.890938
266888351	Fe	0.360855	0.326592	0.892573
266888351	C	0.291895	0.144349	0.916713
266888351	H	0.299187	0.316122	0.962134
266888351	O	0.365333	0.313476	0.917414
266888351	C	0.28605	0.259015	0.915411
266888351	C	0.347012	0.188989	0.864209
266888351	O	0.315131	0.253186	0.85543
266888351	C	0.30224	0.138348	0.0274906
266888351	H	0.406395	0.336708	0.0842313
266888351	H	0.346941	0.326496	0.859467
266888351	O	0.27779	0.243917	0.907117
266888351	H	0.397321	0.292967	0.856263
266888351	H	0.338434	0.271251	0.0588311
266888351	H	0.297667	0.12907	0.914678
266888351	C	0.425402	0.145217	0.966893
266888351	O	0.364717	0.28082	0.946083
266888351	C	0.396494	0.186632	0.0642758
266888351	O	0.401866	0.303827	0.936401
266888351	O	0.356623	0.154039	0.976404
266888351	C	0.358666	0.263849	0.980973
266888351	H	0.350128	0.167151	0.073165
266888351	H	0.284911	0.317728	0.943299
266888351	C	0.423097	0.143202	0.00349881
266888351	O	0.347467	0.336616	0.0646742
266888351	O	0.354123	0.337997	0.864219
266888351	C	0.40178	0.142862	0.000829386
266888351	C	0.335178	0.224947	0.0600595
266888351	C	0.274097	0.127967	0.0516601
266888351	C	0.289266	0.276327	0.88366
266888351	C	0.391806	0.144436	0.980724
266888351	O	0.278504	0.215641	0.937728
266888351	H	0.32337	0.273182	0.919049
266888351	C	0.272166	0.171466	0.905577
266888351	C	0.417536	0.31596	0.964144
266888351	O	0.399587	0.199062	0.972457
266888351	O	0.285414	0.131245	0.869973
266888351	O	0.382487	0.320296	0.957718
266888351	C	0.303335	0.267879	0.852735
266888351	O	0.311071	0.122192	0.0277715
266888351	C	0.335468	0.206139	0.856679
266888351	H	0.274623	0.289052	0.00194057
266888351	O	0.365213	0.122682	0.967843
266888351	H	0.395282	0.253885	0.0593712
266888351	C	0.301898	0.282016	0.86843
266888351	O	0.339977	0.302586	0.950292
266888351	H	0.371057	0.277003	0.0273661
266888351	H	0.387291	0.205444	0.967521
266888351	H	0.365931	0.136456	0.878202
266888351	C	0.399125	0.315258	0.885863
266888351	O	0.344695	0.327545	0.0206534
266888351	C	0.349399	0.287083	0.95566
266888351	H	0.359407	0.229324	0.0443488
266888351	O	0.323656	0.12987	0.949055
266888351	C	0.277655	0.18306	0.92339
266888351	H	0.378606	0.342458	0.033175
266888351	C	0.159309	0.240319	0.844647
266888351	H	0.227827	0.165475	0.856293
266888351	O	0.420591	0.163765	0.8451
266888351	Fe	0.283696	0.109491	0.845556
266888351	C	0.162509	0.0950072	0.892933
266888351	O	0.312557	0.0967985	0.973661
266888351	F	0.228089	0.344561	0.896982
266888351	H	0.192686	0.322249	0.0902893
266888351	O	0.103175	0.263333	0.0935624
266888351	O	0.149353	0.367327	0.14799
266888351	O	0.159265	0.39849	0.146101
266888351	C	0.163056	0.380395	0.149869
266888351	Fe	0.142123	0.415351	0.16482
266888351	O	0.127315	0.433084	0.183997
266888351	C	0.130924	0.432725	0.202229
266888351	O	0.130198	0.417631	0.212415
266888351	O	0.11929	0.416471	0.145683
266888351	Fe	0.121036	0.369397	0.159815
266888351	O	0.130204	0.391622	0.177366
266888351	Fe	0.119517	0.389488	0.204786
266888351	O	0.166846	0.414585	0.184002
266888351	O	0.148371	0.379612	0.215071
266888351	H	0.146337	0.369379	0.224314
266888351	O	0.110465	0.360944	0.202141
266888351	O	0.112049	0.387667	0.136268
266888351	C	0.118291	0.404726	0.131962
266888351	F	0.152209	0.437501	0.153631
266888351	Fe	0.222847	0.407334	0.238715
266888351	O	0.204667	0.405138	0.213563
266888351	C	0.211456	0.404692	0.196377
266888351	O	0.226159	0.415195	0.192666
266888351	O	0.197807	0.413233	0.254208
266888351	O	0.248883	0.403184	0.223961
266888351	F	0.219973	0.380517	0.242167
266888351	C	0.205613	0.37067	0.193017
266888351	C	0.206209	0.388257	0.183615
266888351	C	0.180721	0.376182	0.161715
266888351	C	0.195456	0.39059	0.166298
266888351	C	0.192589	0.356079	0.189416
266888351	H	0.195408	0.405605	0.159687
266888351	H	0.218112	0.368606	0.203515
266888351	H	0.164454	0.404762	0.194256
266888351	H	0.153178	0.371596	0.203815
266888351	O	0.158597	0.558296	0.141497
266888351	O	0.184518	0.57475	0.128666
266888351	C	0.177573	0.560032	0.138525
266888351	Fe	0.136088	0.571265	0.127201
266888351	O	0.124357	0.542256	0.125307
266888351	O	0.128395	0.573125	0.157297
266888351	O	0.172038	0.488367	0.167322
266888351	H	0.11562	0.542591	0.137062
266888351	H	0.134837	0.532349	0.129566
266888351	O	0.187183	0.485457	0.126071
266888351	H	0.18062	0.498452	0.126053
266888351	H	0.176176	0.478466	0.1318
266888351	O	0.2089	0.472646	0.23057
266888351	O	0.206355	0.451776	0.203984
266888351	C	0.198561	0.463757	0.216681
266888351	Fe	0.225872	0.4559	0.251841
266888351	O	0.227719	0.434533	0.232869
266888351	Fe	0.235049	0.441584	0.206238
266888351	O	0.199687	0.445366	0.261155
266888351	C	0.190611	0.428832	0.261676
266888351	H	0.239407	0.482628	0.272975
266888351	O	0.14884	0.550325	0.250017
266888351	O	0.117978	0.545331	0.237819
266888351	C	0.134507	0.555348	0.237891
266888351	Fe	0.153877	0.521156	0.258092
266888351	O	0.117795	0.50141	0.230426
266888351	O	0.182702	0.522449	0.246765
266888351	O	0.147533	0.514022	0.229883
266888351	C	0.135606	0.501591	0.223594
266888351	H	0.18955	0.517631	0.258726
266888351	H	0.185337	0.537059	0.245668
266888351	Fe	0.252797	0.557652	0.221359
266888351	O	0.239401	0.533505	0.236305
266888351	O	0.242653	0.544131	0.195146
266888351	C	0.240369	0.549127	0.176639
266888351	H	0.225402	0.532822	0.230636
266888351	C	0.166471	0.482523	0.216764
266888351	C	0.133855	0.468329	0.209813
266888351	C	0.17608	0.465129	0.215787
266888351	C	0.143342	0.449649	0.209276
266888351	C	0.163978	0.448351	0.211683
266888351	C	0.145131	0.484568	0.214946
266888351	H	0.118079	0.469851	0.211479
266888351	H	0.17096	0.434095	0.21201
266888351	H	0.17569	0.495101	0.221311
266888351	H	0.162966	0.455257	0.249827
266888351	C	0.191081	0.494696	0.170168
266888351	H	0.129797	0.555988	0.197425
266888351	C	0.18396	0.527903	0.155901
266888351	C	0.210868	0.552707	0.152958
266888351	C	0.22214	0.541116	0.166617
266888351	C	0.215024	0.522313	0.172029
266888351	C	0.191477	0.545892	0.148541
266888351	H	0.215505	0.567344	0.149176
266888351	C	0.196701	0.515075	0.165914
266888351	O	0.239365	0.408662	0.264548
266888351	C	0.241033	0.42169	0.277528
266888351	H	0.169594	0.522908	0.15329
266888351	O	0.118262	0.377484	0.323601
266888351	Fe	0.119119	0.360197	0.29629
266888351	O	0.133474	0.383128	0.282149
266888351	H	0.144334	0.384752	0.292041
266888351	H	0.124348	0.394168	0.284977
266888351	C	0.160031	0.433841	0.322889
266888351	C	0.233972	0.419683	0.312479
266888351	C	0.248035	0.416269	0.297931
266888351	C	0.168549	0.422019	0.288915
266888351	H	0.179334	0.412193	0.294839
266888351	O	0.23804	0.440333	0.274075
266888351	O	0.225336	0.478521	0.272244
266888351	H	0.219515	0.489617	0.264661
266888351	O	0.155543	0.490114	0.265836
266888351	O	0.127906	0.482646	0.28523
266888351	C	0.143811	0.47765	0.275386
266888351	O	0.153099	0.508796	0.303425
266888351	O	0.127918	0.518291	0.268291
266888351	O	0.164947	0.531045	0.283834
266888351	C	0.167774	0.51845	0.297418
266888351	H	0.220333	0.424876	0.308414
266888351	C	0.20125	0.529696	0.312233
266888351	C	0.192712	0.494926	0.307629
266888351	C	0.218632	0.524636	0.322501
266888351	C	0.20825	0.490603	0.320986
266888351	C	0.222751	0.50419	0.324753
266888351	C	0.187958	0.514768	0.305676
266888351	H	0.196979	0.545795	0.311425
266888351	C	0.142746	0.446333	0.29418
266888351	C	0.159095	0.445586	0.263152
266888351	C	0.154455	0.430701	0.301801
266888351	C	0.171179	0.428859	0.269137
266888351	C	0.147806	0.456055	0.276359
266888351	H	0.132603	0.454768	0.304407
266888351	O	0.204057	0.481994	0.176381
266888351	H	0.224747	0.51177	0.180739
266888351	H	0.171266	0.473931	0.170354
266888351	O	0.226014	0.57122	0.222531
266888351	C	0.180007	0.358249	0.172002
266888351	C	0.227974	0.538666	0.336614
266888351	O	0.107944	0.38845	0.233699
266888351	H	0.234935	0.499849	0.333819
266888351	C	0.130585	0.570345	0.203399
266888351	O	0.110247	0.580463	0.113437
266888351	C	0.237985	0.417217	0.332164
266888351	O	0.238123	0.389821	0.152994
266888351	H	0.238624	0.538452	0.250298
266888351	O	0.250152	0.56307	0.169087
266888351	O	0.164185	0.41924	0.333872
266888351	O	0.244409	0.468299	0.212467
266888351	O	0.24378	0.450495	0.17769
266888351	C	0.135463	0.572071	0.223619
266888351	Fe	0.123189	0.508679	0.294949
266888351	H	0.182796	0.482908	0.301089
266888351	O	0.254197	0.466921	0.242541
266888351	F	0.118058	0.500575	0.321371
266888351	Fe	0.104977	0.520434	0.25147
266888351	H	0.13741	0.440577	0.11636
266888351	C	0.14092	0.425766	0.109797
266888351	C	0.130693	0.407628	0.113172
266888351	O	0.117217	0.536303	0.301741
266888351	O	0.249925	0.582707	0.332165
266888351	C	0.101556	0.383421	0.33032
266888351	O	0.163051	0.452156	0.328132
266888351	C	0.258038	0.471518	0.22433
266888351	C	0.105628	0.569492	0.321628
266888351	C	0.201446	0.478008	0.337463
266888351	C	0.103021	0.546327	0.293182
266888351	H	0.111488	0.558266	0.331242
266888351	H	0.117239	0.493842	0.104265
266888351	H	0.215192	0.562038	0.21851
266888351	H	0.249437	0.496684	0.105915
266888351	C	0.255801	0.384947	0.156232
266888351	H	0.255661	0.443551	0.174613
266888351	C	0.134897	0.390615	0.101214
266888351	H	0.12756	0.377054	0.104201
266888351	C	0.128281	0.587818	0.191022
266888351	C	0.125319	0.588273	0.167964
266888351	C	0.108141	0.590077	0.3265
266888351	C	0.257157	0.411867	0.338397
266888351	H	0.251833	0.378191	0.118117
266888351	H	0.233271	0.445852	0.168528
266888351	H	0.231264	0.355003	0.16571
266888351	O	0.131076	0.349739	0.180321
266888351	H	0.114988	0.39925	0.239873
266888351	C	0.246739	0.350321	0.167109
266888351	H	0.168339	0.347411	0.170324
266888351	O	0.213335	0.460281	0.102817
266888351	C	0.0968973	0.564767	0.302666
266888351	Fe	0.190895	0.480675	0.0960737
266888351	C	0.33808	0.593511	0.211481
266888351	C	0.253355	0.512072	0.0989335
266888351	H	0.13935	0.592589	0.247702
266888351	O	0.120564	0.344663	0.270576
266888351	H	0.210493	0.453973	0.115389
266888351	O	0.204566	0.414882	0.342373
266888351	O	0.169884	0.458915	0.0997948
266888351	C	0.156511	0.425563	0.0955298
266888351	O	0.147582	0.347428	0.302239
266888351	O	0.14689	0.569712	0.0980328
266888351	H	0.0977275	0.481154	0.254729
266888351	C	0.426653	0.425838	0.244609
266888351	C	0.250364	0.349376	0.112795
266888351	O	0.426353	0.568397	0.168597
266888351	O	0.26107	0.366901	0.117364
266888351	O	0.300438	0.417556	0.341126
266888351	H	0.259937	0.460712	0.126734
266888351	C	0.261359	0.365353	0.163665
266888351	O	0.391524	0.589118	0.29465
266888351	O	0.262382	0.567478	0.248006
266888351	O	0.211892	0.501391	0.0979864
266888351	H	0.257264	0.588341	0.2928
266888351	O	0.262703	0.430175	0.212263
266888351	C	0.263044	0.415846	0.223986
266888351	C	0.122606	0.347482	0.197234
266888351	H	0.319404	0.406087	0.0970753
266888351	F	0.209749	0.591302	0.341688
266888351	C	0.280994	0.582778	0.312075
266888351	H	0.286467	0.455365	0.203559
266888351	C	0.273769	0.516709	0.095603
266888351	O	0.219184	0.554102	0.342201
266888351	O	0.348051	0.50814	0.115815
266888351	C	0.282839	0.578509	0.274836
266888351	Fe	0.295157	0.47173	0.13709
266888351	C	0.392493	0.418721	0.100335
266888351	C	0.101566	0.401576	0.344258
266888351	O	0.094633	0.540078	0.276228
266888351	C	0.138413	0.591071	0.231182
266888351	H	0.0990785	0.351218	0.134308
266888351	O	0.231551	0.349801	0.113884
266888351	O	0.110998	0.34671	0.141018
266888351	H	0.426384	0.547132	0.324073
266888351	O	0.283903	0.488995	0.113536
266888351	C	0.37258	0.395727	0.262623
266888351	O	0.427289	0.389232	0.118538
266888351	O	0.405676	0.532285	0.276734
266888351	O	0.318766	0.470756	0.320639
266888351	H	0.362262	0.350986	0.13713
266888351	C	0.400128	0.397361	0.238967
266888351	C	0.280798	0.411112	0.236071
266888351	H	0.409113	0.562303	0.328848
266888351	C	0.370799	0.369891	0.235588
266888351	H	0.423883	0.355552	0.139538
266888351	H	0.356896	0.518322	0.198856
266888351	O	0.417739	0.514177	0.340465
266888351	C	0.424606	0.475347	0.313772
266888351	O	0.296157	0.522185	0.142545
266888351	C	0.301767	0.481504	0.191223
266888351	C	0.301958	0.570565	0.276466
266888351	C	0.392418	0.518855	0.280288
266888351	H	0.377197	0.361193	0.340019
266888351	O	0.363447	0.405378	0.302677
266888351	H	0.398617	0.444557	0.325604
266888351	O	0.328145	0.415784	0.288468
266888351	O	0.335873	0.429536	0.323156
266888351	O	0.318999	0.487505	0.138865
266888351	F	0.288714	0.565317	0.155198
266888351	O	0.318838	0.368355	0.216644
266888351	C	0.385066	0.53541	0.201473
266888351	O	0.373923	0.519797	0.275528
266888351	Fe	0.277093	0.573075	0.179754
266888351	O	0.373128	0.414908	0.337165
266888351	H	0.2652	0.410403	0.145233
266888351	O	0.304542	0.459193	0.162719
266888351	C	0.396226	0.497156	0.310281
266888351	F	0.33384	0.3608	0.114601
266888351	H	0.385543	0.50768	0.316361
266888351	H	0.308798	0.510282	0.179303
266888351	C	0.302081	0.57787	0.312515
266888351	O	0.278637	0.489411	0.156498
266888351	O	0.40058	0.423221	0.116807
266888351	O	0.309626	0.451763	0.117147
266888351	F	0.325108	0.540678	0.120777
266888351	C	0.391541	0.366806	0.120144
266888351	C	0.383285	0.536629	0.159957
266888351	C	0.310321	0.422461	0.285567
266888351	H	0.277375	0.403733	0.293071
266888351	O	0.305224	0.395185	0.31926
266888351	O	0.353649	0.475743	0.11806
266888351	H	0.365882	0.505186	0.338829
266888351	O	0.319567	0.350013	0.178591
266888351	H	0.410109	0.554286	0.198147
266888351	O	0.414095	0.383249	0.159657
266888351	H	0.40334	0.434526	0.274449
266888351	O	0.279491	0.543456	0.220928
266888351	H	0.292446	0.371442	0.166045
266888351	O	0.347967	0.393055	0.339666
266888351	O	0.386779	0.383736	0.126498
266888351	Fe	0.407996	0.402264	0.136542
266888351	H	0.379393	0.467705	0.159578
266888351	C	0.411448	0.34618	0.143019
266888351	O	0.416472	0.574137	0.281451
266888351	O	0.337851	0.372955	0.302521
266888351	Fe	0.357237	0.54097	0.259397
266888351	H	0.41031	0.39038	0.228415
266888351	O	0.414096	0.558931	0.138328
266888351	Fe	0.365846	0.585712	0.277632
266888351	H	0.309554	0.563718	0.263575
266888351	O	0.270243	0.454037	0.135309
266888351	C	0.385442	0.536909	0.223205
266888351	C	0.325676	0.442225	0.122797
266888351	O	0.359586	0.49904	0.15422
266888351	H	0.267626	0.494025	0.147761
266888351	C	0.288205	0.513425	0.204427
266888351	H	0.417136	0.392864	0.169879
266888351	Fe	0.322348	0.515233	0.12938
266888351	H	0.384217	0.535019	0.143952
266888351	C	0.269202	0.585576	0.331583
266888351	C	0.396626	0.422142	0.265414
266888351	C	0.400662	0.500747	0.290593
266888351	H	0.340824	0.579376	0.204473
266888351	C	0.370688	0.419179	0.292486
266888351	C	0.293217	0.405379	0.328983
266888351	C	0.284069	0.535215	0.204413
266888351	C	0.303102	0.384024	0.244222
266888351	H	0.421441	0.495631	0.268287
266888351	H	0.31049	0.577084	0.32646
266888351	H	0.334578	0.512349	0.265662
266888351	H	0.36614	0.450229	0.16781
266888351	H	0.415151	0.581922	0.229117
266888351	C	0.407082	0.415209	0.249326
266888351	H	0.272669	0.480147	0.166428
266888351	H	0.300438	0.501472	0.338906
266888351	C	0.289297	0.504547	0.10503
266888351	C	0.272602	0.583608	0.292417
266888351	O	0.40802	0.583271	0.241346
266888351	O	0.35251	0.470668	0.325902
266888351	C	0.416645	0.489566	0.281762
266888351	F	0.340545	0.384802	0.185866
266888351	O	0.390272	0.452062	0.333707
266888351	O	0.332808	0.445312	0.139715
266888351	C	0.409154	0.486371	0.322763
266888351	H	0.326877	0.369885	0.293304
266888351	O	0.343915	0.56197	0.240725
266888351	O	0.369153	0.35185	0.24236
266888351	O	0.399497	0.36479	0.102829
266888351	F	0.285551	0.454981	0.33452
266888351	C	0.316775	0.368009	0.235318
266888351	O	0.349453	0.57199	0.300419
266888351	O	0.301264	0.434444	0.29838
266888351	H	0.30068	0.533567	0.151109
266888351	O	0.304823	0.584622	0.18791
266888351	C	0.353374	0.516096	0.160722
266888351	C	0.382191	0.386986	0.246296
266888351	H	0.279434	0.435378	0.259007
266888351	O	0.283353	0.544749	0.188384
266888351	O	0.360077	0.37411	0.219741
266888351	H	0.27425	0.442442	0.127344
266888351	C	0.413996	0.558064	0.158494
266888351	C	0.312399	0.570651	0.295039
266888351	O	0.307352	0.509967	0.104092
266888351	C	0.367706	0.527691	0.170658
266888351	O	0.265305	0.5793	0.206059
266888351	Fe	0.3411	0.360233	0.199222
266888351	H	0.267124	0.510117	0.228598
266888351	O	0.332269	0.472536	0.17512
266888351	C	0.33375	0.501682	0.334413
266888351	C	0.394002	0.351118	0.13347
266888351	O	0.369194	0.458141	0.155119
266888351	C	0.271115	0.406134	0.323597
266888351	H	0.366165	0.437132	0.124362
266888351	O	0.33745	0.548267	0.282798
266888351	C	0.368646	0.526377	0.191572
266888351	O	0.336687	0.522875	0.155675
266888351	C	0.31387	0.469938	0.175891
266888351	C	0.398987	0.546705	0.170117
266888351	C	0.314878	0.509976	0.340194
266888351	H	0.349697	0.369742	0.294833
266888351	C	0.276406	0.502532	0.217948
266888351	C	0.2809	0.36013	0.167574
266888351	O	0.377136	0.561435	0.265142
266888351	C	0.288444	0.471438	0.204
266888351	Fe	0.31048	0.442825	0.329104
266888351	O	0.325447	0.354917	0.246358
266888351	Fe	0.362054	0.441257	0.329274
266888351	O	0.340554	0.583827	0.263576
266888351	O	0.369657	0.532874	0.232978
266888351	Fe	0.343538	0.473146	0.146824
266888351	C	0.288457	0.391946	0.23214
266888351	C	0.275964	0.48205	0.21728
266888351	C	0.398924	0.546036	0.190493
266888351	F	0.390038	0.415248	0.152584
266888351	Fe	0.406651	0.557071	0.258705
266888351	H	0.323183	0.529303	0.255608
266888351	C	0.266611	0.40824	0.303704
266888351	C	0.350964	0.511964	0.33992
266888351	C	0.335398	0.479811	0.325998
266888351	C	0.309586	0.395089	0.261159
266888351	C	0.302964	0.414744	0.265843
266888351	O	0.335116	0.520081	0.253246
266888351	C	0.359668	0.434076	0.109646
266888351	C	0.338711	0.43014	0.10848
266888351	H	0.283587	0.384103	0.2182
266888351	C	0.334313	0.562208	0.295073
266888351	C	0.286724	0.421822	0.253898
266888351	Fe	0.335564	0.402765	0.313529
266888351	C	0.379394	0.412633	0.272707
266888351	H	0.359096	0.388352	0.267555
266888351	C	0.300292	0.502671	0.191226
266888351	H	0.321816	0.387537	0.26778
266888351	C	0.354092	0.492053	0.107972
266888351	O	0.270912	0.398722	0.152577
266888351	O	0.4223	0.557401	0.334252
266888351	O	0.401443	0.542265	0.232003
266888351	C	0.340226	0.579023	0.245373
266888351	O	0.369628	0.437582	0.298456
266888351	C	0.412453	0.495702	0.341976
266888351	C	0.274062	0.580385	0.254982
266888351	O	0.363965	0.35095	0.183867
266888351	H	0.121144	0.34562	0.130074
266888351	H	0.0954659	0.396168	0.23135
266888351	H	0.335512	0.348665	0.329463
266888351	C	0.407803	0.590269	0.285371
266888351	O	0.343456	0.348266	0.341693
266888351	H	0.424575	0.568097	0.134509
266888351	O	0.244434	0.533725	0.343376
266888351	C	0.365631	0.398794	0.344098
266888351	H	0.37388	0.59316	0.243294
266888351	H	0.289541	0.34531	0.105373
266888351	C	0.333183	0.414538	0.0950277
266888351	C	0.372187	0.426869	0.0951844
266888351	O	0.188438	0.36064	0.396144
266888351	C	0.183389	0.365532	0.413608
266888351	Fe	0.179877	0.417502	0.360261
266888351	O	0.154431	0.417175	0.376319
266888351	C	0.139462	0.427874	0.370748
266888351	O	0.195224	0.414942	0.386396
266888351	C	0.201501	0.424681	0.400692
266888351	C	0.119756	0.420194	0.369523
266888351	C	0.205834	0.393428	0.414122
266888351	C	0.192294	0.38232	0.423705
266888351	C	0.206374	0.413288	0.418592
266888351	H	0.211778	0.388255	0.399718
266888351	O	0.208234	0.571138	0.378279
266888351	O	0.252197	0.563506	0.369619
266888351	O	0.221367	0.541291	0.38215
266888351	C	0.20677	0.553068	0.384589
266888351	C	0.139567	0.53288	0.428837
266888351	O	0.197406	0.480832	0.382789
266888351	O	0.164269	0.476683	0.382101
266888351	C	0.179671	0.486501	0.388223
266888351	Fe	0.1636	0.463542	0.355343
266888351	Fe	0.209067	0.454603	0.37247
266888351	O	0.183713	0.445469	0.362612
266888351	O	0.141297	0.444701	0.362206
266888351	O	0.236935	0.465024	0.38261
266888351	O	0.204516	0.44254	0.399542
266888351	C	0.16038	0.510833	0.408513
266888351	C	0.17121	0.546317	0.407258
266888351	C	0.176168	0.506613	0.395785
266888351	C	0.188297	0.541057	0.394189
266888351	C	0.188135	0.521409	0.387929
266888351	C	0.156664	0.531209	0.414302
266888351	H	0.166582	0.561522	0.409171
266888351	H	0.19709	0.517262	0.374819
266888351	H	0.151285	0.497796	0.412201
266888351	O	0.158643	0.43691	0.411031
266888351	C	0.14522	0.433257	0.423332
266888351	O	0.184406	0.391278	0.547784
266888351	O	0.155489	0.374266	0.545567
266888351	C	0.173224	0.375736	0.552411
266888351	Fe	0.141399	0.397231	0.531027
266888351	O	0.132653	0.421599	0.514534
266888351	C	0.1336	0.420505	0.495326
266888351	O	0.131283	0.4024	0.488967
266888351	O	0.197507	0.410463	0.488609
266888351	O	0.168204	0.409107	0.473667
266888351	C	0.186574	0.410108	0.472342
266888351	O	0.158158	0.417067	0.546271
266888351	Fe	0.188895	0.402987	0.518225
266888351	O	0.162493	0.394273	0.512278
266888351	Fe	0.155123	0.385282	0.486485
266888351	O	0.122303	0.375224	0.519237
266888351	O	0.146399	0.375044	0.459326
266888351	O	0.143096	0.361095	0.498308
266888351	C	0.128297	0.359592	0.51071
266888351	O	0.180497	0.367332	0.487265
266888351	O	0.215942	0.412195	0.527398
266888351	O	0.199647	0.375483	0.514027
266888351	C	0.193625	0.363113	0.500585
266888351	H	0.214208	0.42618	0.523062
266888351	H	0.226069	0.407114	0.517382
266888351	H	0.143338	0.387286	0.451354
266888351	H	0.133267	0.368978	0.461846
266888351	F	0.122052	0.40017	0.550625
266888351	C	0.179295	0.359734	0.566134
266888351	C	0.199775	0.353896	0.571012
266888351	H	0.125527	0.419269	0.458388
266888351	C	0.202169	0.42014	0.438411
266888351	C	0.194129	0.406041	0.45215
266888351	C	0.186912	0.388043	0.443369
266888351	H	0.179541	0.377289	0.453053
266888351	O	0.175502	0.431382	0.524459
266888351	C	0.162447	0.43254	0.538078
266888351	O	0.240865	0.559847	0.543933
266888351	H	0.244978	0.566179	0.556529
266888351	H	0.238107	0.545663	0.547035
266888351	O	0.153971	0.495943	0.573192
266888351	H	0.162753	0.484986	0.577954
266888351	H	0.161224	0.507572	0.568171
266888351	O	0.145702	0.568439	0.475421
266888351	O	0.169874	0.548357	0.46936
266888351	C	0.16194	0.565233	0.465844
266888351	Fe	0.156875	0.527109	0.491341
266888351	O	0.142922	0.506542	0.509892
266888351	C	0.131536	0.492045	0.505809
266888351	O	0.124497	0.48864	0.488004
266888351	O	0.141662	0.54917	0.508277
266888351	Fe	0.122311	0.552658	0.466112
266888351	O	0.13411	0.526893	0.472946
266888351	Fe	0.125538	0.503675	0.46061
266888351	O	0.169625	0.498872	0.48126
266888351	O	0.153568	0.496321	0.453053
266888351	C	0.162513	0.487285	0.46739
266888351	O	0.128337	0.517745	0.432722
266888351	O	0.112838	0.554621	0.494928
266888351	O	0.137373	0.548931	0.43824
266888351	C	0.123494	0.554137	0.51058
266888351	O	0.177092	0.385849	0.359926
266888351	F	0.179873	0.529343	0.507817
266888351	C	0.136015	0.431521	0.460196
266888351	C	0.157781	0.457463	0.447964
266888351	C	0.140678	0.436164	0.480549
266888351	C	0.159557	0.465044	0.467186
266888351	C	0.153641	0.453382	0.483267
266888351	C	0.146353	0.441212	0.444146
266888351	H	0.1668	0.463126	0.435561
266888351	H	0.15818	0.457221	0.497686
266888351	C	0.124561	0.551471	0.549198
266888351	C	0.115311	0.559092	0.531357
266888351	C	0.117352	0.554408	0.568405
266888351	H	0.137865	0.542966	0.547228
266888351	C	0.146577	0.46786	0.530674
266888351	C	0.128732	0.444255	0.550371
266888351	C	0.12912	0.475324	0.522169
266888351	C	0.110275	0.449871	0.541591
266888351	C	0.110754	0.46549	0.52732
266888351	C	0.147165	0.449004	0.541095
266888351	H	0.130185	0.433775	0.562177
266888351	H	0.16109	0.473561	0.526013
266888351	H	0.199889	0.435822	0.440327
266888351	O	0.250619	0.581663	0.509383
266888351	O	0.135574	0.529069	0.584805
266888351	C	0.122746	0.542061	0.58641
266888351	O	0.172057	0.354677	0.423036
266888351	O	0.253187	0.539042	0.508639
266888351	H	0.246673	0.454637	0.381005
266888351	O	0.11594	0.478367	0.44545
266888351	H	0.236956	0.467122	0.397715
266888351	O	0.108505	0.579498	0.459046
266888351	Fe	0.230136	0.578629	0.356289
266888351	H	0.212061	0.360029	0.562905
266888351	O	0.133587	0.417006	0.420329
266888351	C	0.168047	0.581078	0.449735
266888351	H	0.134508	0.412051	0.40625
266888351	Fe	0.250403	0.535618	0.372189
266888351	H	0.110301	0.469839	0.455733
266888351	C	0.104132	0.434766	0.369905
266888351	O	0.114985	0.585366	0.362115
266888351	O	0.243992	0.504865	0.374328
266888351	C	0.163668	0.350679	0.577082
266888351	H	0.242184	0.372111	0.386074
266888351	H	0.148267	0.354222	0.574259
266888351	O	0.225005	0.430013	0.362138
266888351	O	0.112007	0.495806	0.587571
266888351	H	0.198292	0.354046	0.460027
266888351	H	0.137996	0.580088	0.435097
266888351	C	0.117646	0.404122	0.356714
266888351	H	0.106185	0.479655	0.433802
266888351	H	0.106665	0.449147	0.377768
266888351	C	0.153177	0.585898	0.434773
266888351	O	0.105402	0.375523	0.4325
266888351	H	0.211619	0.354205	0.440674
266888351	H	0.129206	0.392836	0.355273
266888351	H	0.0978114	0.469576	0.519957
266888351	H	0.109169	0.385464	0.422391
266888351	C	0.255214	0.364393	0.390939
266888351	O	0.0968149	0.508498	0.468209
266888351	C	0.100274	0.565914	0.569724
266888351	C	0.0975446	0.569875	0.533835
266888351	H	0.331726	0.348093	0.351263
266888351	H	0.103108	0.584813	0.471603
266888351	H	0.251363	0.354828	0.55265
266888351	C	0.0988148	0.385315	0.449517
266888351	C	0.221895	0.420459	0.34639
266888351	H	0.0966808	0.575797	0.451113
266888351	O	0.0965355	0.403828	0.450757
266888351	H	0.190879	0.59397	0.465689
266888351	H	0.189574	0.379442	0.356332
266888351	H	0.229662	0.504613	0.369578
266888351	C	0.426723	0.576566	0.468697
266888351	H	0.249019	0.528725	0.51847
266888351	O	0.0950733	0.540718	0.457378
266888351	O	0.302904	0.593307	0.381568
266888351	O	0.213716	0.466865	0.345852
266888351	O	0.203575	0.345466	0.449301
266888351	F	0.361787	0.34488	0.416066
266888351	H	0.427315	0.476064	0.509681
266888351	H	0.252395	0.499717	0.363436
266888351	C	0.425411	0.554275	0.466424
266888351	H	0.343855	0.372976	0.449003
266888351	C	0.315725	0.462319	0.571457
266888351	O	0.256436	0.405849	0.392239
266888351	H	0.265301	0.532702	0.502803
266888351	H	0.394598	0.386616	0.586684
266888351	F	0.413784	0.453361	0.425369
266888351	O	0.327843	0.456747	0.585215
266888351	F	0.426164	0.472122	0.390732
266888351	H	0.288717	0.350167	0.521062
266888351	H	0.260846	0.40923	0.35359
266888351	C	0.350631	0.530023	0.350707
266888351	Fe	0.416318	0.519837	0.586499
266888351	O	0.389617	0.487826	0.398488
266888351	H	0.26003	0.57614	0.4663
266888351	O	0.266799	0.564565	0.47323
266888351	O	0.384661	0.537878	0.347934
266888351	O	0.184438	0.482951	0.34512
266888351	H	0.346763	0.38034	0.428147
266888351	O	0.380022	0.440323	0.443124
266888351	O	0.263808	0.346418	0.553611
266888351	H	0.286757	0.381113	0.585659
266888351	H	0.165882	0.381397	0.351153
266888351	C	0.296343	0.591105	0.571838
266888351	C	0.272482	0.395882	0.395943
266888351	F	0.145533	0.48304	0.348501
266888351	O	0.381281	0.380793	0.58385
266888351	O	0.401611	0.556786	0.405577
266888351	O	0.320099	0.448563	0.358743
266888351	H	0.294771	0.559867	0.442701
266888351	O	0.334359	0.397753	0.538677
266888351	O	0.387474	0.385542	0.421341
266888351	F	0.0977722	0.570355	0.398196
266888351	C	0.326624	0.593119	0.50688
266888351	C	0.37445	0.38463	0.488808
266888351	O	0.349857	0.360433	0.379084
266888351	O	0.361984	0.545557	0.415874
266888351	O	0.353431	0.44361	0.358135
266888351	O	0.278153	0.591178	0.347767
266888351	C	0.332012	0.538402	0.354756
266888351	C	0.330269	0.359858	0.561584
266888351	H	0.347454	0.369771	0.39027
266888351	Fe	0.356122	0.456835	0.575034
266888351	Fe	0.265536	0.561148	0.526193
266888351	C	0.343206	0.473571	0.388556
266888351	C	0.30206	0.533147	0.458908
266888351	O	0.391667	0.364991	0.45592
266888351	O	0.402296	0.406245	0.45542
266888351	H	0.392902	0.459435	0.578037
266888351	O	0.408969	0.426475	0.492667
266888351	F	0.358663	0.483361	0.583214
266888351	O	0.391328	0.553288	0.557881
266888351	O	0.277755	0.582819	0.543207
266888351	O	0.260293	0.535214	0.401517
266888351	C	0.359101	0.467275	0.420705
266888351	C	0.387915	0.398293	0.373262
266888351	C	0.291948	0.51349	0.562134
266888351	C	0.378469	0.388761	0.357417
266888351	C	0.290052	0.480639	0.442213
266888351	H	0.316701	0.368406	0.561765
266888351	O	0.393891	0.419098	0.566972
266888351	C	0.309376	0.544401	0.4766
266888351	O	0.337775	0.538881	0.532235
266888351	C	0.30342	0.480437	0.574695
266888351	O	0.289625	0.406383	0.400115
266888351	C	0.410649	0.503228	0.542565
266888351	Fe	0.328549	0.427072	0.547494
266888351	C	0.421214	0.525877	0.443534
266888351	C	0.401404	0.459843	0.500773
266888351	Fe	0.40844	0.430834	0.440981
266888351	C	0.3138	0.528189	0.350788
266888351	H	0.371188	0.357513	0.533774
266888351	H	0.279185	0.457226	0.433404
266888351	C	0.28517	0.513762	0.426611
266888351	C	0.415364	0.562682	0.393845
266888351	H	0.331383	0.551108	0.365582
266888351	O	0.404565	0.52325	0.380932
266888351	O	0.4035	0.414468	0.413029
266888351	H	0.337115	0.542022	0.54666
266888351	C	0.312828	0.588247	0.584281
266888351	C	0.345223	0.439804	0.402279
266888351	H	0.280238	0.533521	0.584975
266888351	H	0.404618	0.365489	0.44963
266888351	H	0.310032	0.426488	0.514901
266888351	C	0.411927	0.473828	0.513498
266888351	O	0.422001	0.577773	0.555013
266888351	C	0.274097	0.544712	0.409836
266888351	C	0.417487	0.545814	0.4484
266888351	H	0.384228	0.353642	0.450105
266888351	O	0.364694	0.396024	0.54635
266888351	H	0.36843	0.474043	0.431524
266888351	O	0.278705	0.52682	0.361262
266888351	H	0.343471	0.482789	0.37521
266888351	Fe	0.415829	0.497224	0.385831
266888351	H	0.281284	0.506246	0.41298
266888351	O	0.314532	0.536659	0.493071
266888351	O	0.29505	0.555246	0.363876
266888351	H	0.374165	0.489536	0.542996
266888351	H	0.359897	0.55919	0.410708
266888351	C	0.38896	0.551961	0.576871
266888351	C	0.339514	0.4537	0.387009
266888351	H	0.34378	0.424605	0.400638
266888351	Fe	0.417458	0.400893	0.481162
266888351	C	0.288889	0.526489	0.545132
266888351	H	0.402209	0.357175	0.399192
266888351	C	0.382046	0.481717	0.53137
266888351	C	0.282753	0.534639	0.42745
266888351	C	0.365958	0.364901	0.492774
266888351	C	0.390673	0.35737	0.368876
266888351	O	0.316764	0.453768	0.554986
266888351	C	0.300011	0.493974	0.558445
266888351	O	0.395607	0.51987	0.421956
266888351	O	0.366239	0.395465	0.475445
266888351	C	0.379524	0.34927	0.496251
266888351	C	0.348621	0.387546	0.543657
266888351	C	0.289923	0.363712	0.401988
266888351	C	0.353533	0.457939	0.530805
266888351	H	0.405709	0.412925	0.573384
266888351	C	0.294625	0.5372	0.359504
266888351	H	0.350504	0.536379	0.412659
266888351	H	0.324586	0.579047	0.578925
266888351	C	0.292651	0.502638	0.442268
266888351	H	0.385728	0.413825	0.3749
266888351	C	0.322293	0.401682	0.583443
266888351	O	0.348373	0.466382	0.546756
266888351	C	0.371426	0.49333	0.398471
266888351	H	0.303642	0.371399	0.403214
266888351	O	0.340715	0.394921	0.582334
266888351	C	0.356012	0.47968	0.404294
266888351	O	0.411795	0.501139	0.561805
266888351	Fe	0.277083	0.576915	0.375552
266888351	O	0.414657	0.520006	0.534976
266888351	Fe	0.419812	0.548535	0.546432
266888351	Fe	0.312485	0.552071	0.520097
266888351	C	0.396097	0.387452	0.388746
266888351	O	0.408823	0.557712	0.518145
266888351	O	0.279887	0.4706	0.427657
266888351	C	0.345986	0.359037	0.486871
266888351	O	0.33095	0.574845	0.510914
266888351	H	0.295379	0.434934	0.530093
266888351	H	0.3099	0.356586	0.52764
266888351	Fe	0.384004	0.534289	0.398005
266888351	H	0.335098	0.524186	0.532431
266888351	H	0.411874	0.546715	0.508445
266888351	O	0.288965	0.563619	0.510254
266888351	O	0.362458	0.41473	0.434347
266888351	H	0.334501	0.370508	0.483499
266888351	O	0.353766	0.373007	0.438656
266888351	H	0.30606	0.504702	0.471049
266888351	O	0.3075	0.567188	0.546543
266888351	H	0.393837	0.352542	0.501532
266888351	O	0.345644	0.440765	0.525561
266888351	O	0.417251	0.589319	0.458465
266888351	O	0.299553	0.52638	0.529534
266888351	H	0.372143	0.445392	0.497753
266888351	C	0.359874	0.352906	0.543663
266888351	C	0.386689	0.590343	0.585378
266888351	H	0.406357	0.553867	0.439889
266888351	C	0.294481	0.580094	0.552603
266888351	C	0.409726	0.44396	0.486305
266888351	O	0.280558	0.561514	0.403548
266888351	O	0.298031	0.469435	0.455561
266888351	C	0.293607	0.544105	0.442815
266888351	O	0.385236	0.457402	0.565484
266888351	C	0.396421	0.396639	0.409202
266888351	O	0.304832	0.423793	0.528411
266888351	Fe	0.367266	0.407119	0.574288
266888351	Fe	0.413378	0.538485	0.358225
266888351	O	0.351384	0.430288	0.565699
266888351	C	0.368859	0.540112	0.357684
266888351	C	0.346275	0.366955	0.549877
266888351	O	0.366432	0.510341	0.393199
266888351	C	0.413459	0.51695	0.425438
266888351	O	0.424158	0.507013	0.413641
266888351	C	0.272671	0.374354	0.397191
266888351	C	0.302057	0.512347	0.457875
266888351	H	0.301198	0.488283	0.543594
266888351	O	0.411769	0.562729	0.375554
266888351	O	0.300196	0.345786	0.529275
266888351	C	0.336766	0.446549	0.36708
266888351	C	0.371772	0.466022	0.521091
266888351	C	0.397811	0.365785	0.386208
266888351	O	0.41346	0.447299	0.467827
266888351	H	0.287434	0.42037	0.39506
266888351	O	0.369214	0.548231	0.375238
266888351	O	0.408749	0.487108	0.358188
266888351	H	0.393358	0.557956	0.518191
266888351	C	0.402549	0.486476	0.528786
266888351	O	0.313496	0.413268	0.570234
266888351	O	0.392768	0.386466	0.493045
266888351	Fe	0.289874	0.580528	0.485743
266888351	O	0.276554	0.541009	0.546588
266888351	C	0.354785	0.447002	0.419685
266888351	C	0.365502	0.433106	0.433121
266888351	C	0.382682	0.368538	0.353365
266888351	H	0.396134	0.415954	0.553303
266888351	O	0.389405	0.533876	0.583718
266888351	C	0.287322	0.518719	0.582142
266888351	O	0.310246	0.563185	0.474748
266888351	Fe	0.377786	0.39112	0.44778
266888351	C	0.380939	0.456816	0.505042
266888351	H	0.393878	0.446827	0.346987
266888351	H	0.382572	0.372143	0.572595
266888351	C	0.388828	0.569836	0.591365
266888351	H	0.311597	0.584115	0.388025
266888351	C	0.300354	0.487773	0.594441
266888351	O	0.141284	0.353576	0.610336
266888351	Fe	0.155436	0.37797	0.622244
266888351	O	0.16778	0.401822	0.63459
266888351	C	0.183138	0.406342	0.645253
266888351	O	0.194518	0.392913	0.652099
266888351	O	0.135054	0.381777	0.642908
266888351	O	0.169095	0.359204	0.639682
266888351	Fe	0.196474	0.362155	0.647379
266888351	O	0.225696	0.363908	0.658039
266888351	O	0.207393	0.367551	0.619418
266888351	C	0.12234	0.368731	0.642489
266888351	O	0.219795	0.391206	0.720688
266888351	O	0.220626	0.416334	0.755041
266888351	C	0.204329	0.434325	0.638373
266888351	C	0.186813	0.428438	0.647363
266888351	H	0.216684	0.425821	0.639978
266888351	C	0.122535	0.41984	0.734786
266888351	C	0.13234	0.402391	0.729769
266888351	C	0.14927	0.396308	0.740439
266888351	C	0.128322	0.431704	0.751179
266888351	H	0.108943	0.422927	0.728246
266888351	H	0.158157	0.384506	0.736658
266888351	C	0.123127	0.38793	0.716307
266888351	O	0.190669	0.445059	0.741458
266888351	O	0.213341	0.431239	0.715681
266888351	O	0.115127	0.461834	0.743878
266888351	Fe	0.107326	0.491049	0.748988
266888351	O	0.133078	0.501955	0.73566
266888351	H	0.145063	0.493903	0.738407
266888351	H	0.131891	0.499831	0.720823
266888351	O	0.22694	0.52504	0.65662
266888351	C	0.227663	0.506336	0.655591
266888351	O	0.236617	0.563035	0.650765
266888351	F	0.221353	0.549352	0.685852
266888351	O	0.15212	0.537613	0.629257
266888351	C	0.163928	0.522013	0.628603
266888351	Fe	0.121247	0.535128	0.632959
266888351	O	0.125002	0.508825	0.624431
266888351	Fe	0.111363	0.487133	0.639264
266888351	O	0.128209	0.529493	0.661005
266888351	O	0.113234	0.500922	0.668269
266888351	C	0.119751	0.518258	0.673534
266888351	O	0.139422	0.472658	0.641805
266888351	C	0.150509	0.46824	0.627782
266888351	F	0.120245	0.560554	0.640847
266888351	O	0.153023	0.577701	0.727006
266888351	C	0.142013	0.572924	0.712467
266888351	C	0.169304	0.440793	0.646145
266888351	C	0.168968	0.456488	0.632336
266888351	H	0.155889	0.434162	0.650724
266888351	H	0.245145	0.53132	0.732088
266888351	C	0.194771	0.510497	0.63998
266888351	C	0.198943	0.488477	0.668235
266888351	C	0.175437	0.514839	0.645538
266888351	C	0.178809	0.490206	0.67198
266888351	C	0.167128	0.503421	0.660913
266888351	C	0.207834	0.498622	0.652387
266888351	H	0.20772	0.478945	0.677469
266888351	H	0.200829	0.51729	0.626381
266888351	C	0.133396	0.539682	0.698824
266888351	C	0.130339	0.554667	0.713982
266888351	C	0.118111	0.526354	0.693726
266888351	H	0.146291	0.540501	0.689536
266888351	H	0.17859	0.450772	0.747694
266888351	H	0.230331	0.557296	0.638459
266888351	O	0.150315	0.479191	0.691143
266888351	C	0.168766	0.477056	0.687571
266888351	H	0.170407	0.456431	0.707167
266888351	Fe	0.207223	0.438818	0.767065
266888351	O	0.184221	0.421873	0.774516
266888351	C	0.177164	0.4068	0.764608
266888351	O	0.189516	0.391487	0.761086
266888351	Fe	0.219746	0.391881	0.769857
266888351	O	0.222588	0.434393	0.793146
266888351	O	0.211838	0.40431	0.795522
266888351	C	0.219675	0.418648	0.80322
266888351	C	0.139541	0.373596	0.788094
266888351	C	0.125404	0.380599	0.801755
266888351	C	0.144966	0.425498	0.761782
266888351	C	0.156164	0.408586	0.756182
266888351	H	0.148344	0.433615	0.774863
266888351	C	0.22727	0.416057	0.822944
266888351	F	0.19404	0.460184	0.779167
266888351	O	0.11061	0.44944	0.77406
266888351	C	0.116232	0.448265	0.756796
266888351	O	0.120704	0.495536	0.778169
266888351	C	0.11573	0.492038	0.795877
266888351	C	0.244831	0.523797	0.773053
266888351	O	0.236161	0.540524	0.76841
266888351	O	0.225683	0.570444	0.801879
266888351	C	0.230366	0.582279	0.816055
266888351	Fe	0.241064	0.570405	0.775326
266888351	O	0.215836	0.575465	0.760015
266888351	C	0.123141	0.502841	0.814058
266888351	C	0.122082	0.523734	0.815797
266888351	H	0.117041	0.533181	0.802268
266888351	C	0.126491	0.491539	0.83233
266888351	C	0.125733	0.532626	0.834307
266888351	H	0.233566	0.371956	0.648116
266888351	H	0.152145	0.501542	0.661505
266888351	O	0.179586	0.462502	0.697083
266888351	O	0.186126	0.357942	0.674966
266888351	C	0.21443	0.405878	0.836743
266888351	F	0.141281	0.393768	0.605181
266888351	O	0.125688	0.568647	0.832635
266888351	H	0.198998	0.40381	0.833848
266888351	H	0.210298	0.382311	0.619805
266888351	H	0.186323	0.380408	0.706086
266888351	C	0.204918	0.452465	0.627669
266888351	O	0.165154	0.511463	0.612884
266888351	C	0.127376	0.374146	0.821703
266888351	O	0.219821	0.365299	0.786376
266888351	O	0.229081	0.457217	0.758062
266888351	H	0.210788	0.423237	0.703745
266888351	H	0.137984	0.378178	0.772495
266888351	O	0.106934	0.39149	0.70703
266888351	C	0.103618	0.373286	0.634553
266888351	Fe	0.243862	0.541389	0.672469
266888351	O	0.126966	0.350811	0.644231
266888351	H	0.125924	0.476048	0.831569
266888351	O	0.11439	0.544603	0.603387
266888351	C	0.186944	0.463225	0.62494
266888351	O	0.226716	0.374135	0.746501
266888351	H	0.220515	0.361721	0.621127
266888351	O	0.104938	0.473928	0.61177
266888351	H	0.219785	0.443101	0.711478
266888351	C	0.217285	0.375687	0.730389
266888351	C	0.24866	0.51551	0.736745
266888351	C	0.247566	0.417143	0.82847
266888351	Fe	0.234803	0.415463	0.730171
266888351	O	0.250303	0.39566	0.775205
266888351	O	0.243843	0.495832	0.656801
266888351	O	0.146504	0.473864	0.610055
266888351	C	0.170512	0.353676	0.684793
266888351	H	0.225118	0.371871	0.669763
266888351	C	0.247154	0.509317	0.756871
266888351	H	0.11176	0.377096	0.603413
266888351	O	0.131002	0.369642	0.714234
266888351	C	0.217998	0.585031	0.832663
266888351	H	0.12032	0.360377	0.708236
266888351	C	0.245247	0.456627	0.747895
266888351	H	0.234998	0.580646	0.709308
266888351	O	0.212805	0.584729	0.603347
266888351	O	0.250454	0.441374	0.7377
266888351	C	0.113892	0.551658	0.726916
266888351	C	0.186611	0.365802	0.712727
266888351	C	0.201458	0.361509	0.726595
266888351	O	0.140714	0.582547	0.695921
266888351	H	0.111116	0.561662	0.739078
266888351	H	0.231979	0.365639	0.79503
266888351	C	0.154278	0.360208	0.793363
266888351	C	0.174738	0.351317	0.704534
266888351	C	0.109119	0.394072	0.79654
266888351	C	0.100241	0.536376	0.723223
266888351	O	0.250575	0.413136	0.703351
266888351	O	0.153228	0.349235	0.678175
266888351	H	0.221125	0.354356	0.776634
266888351	C	0.223198	0.458359	0.617731
266888351	O	0.245717	0.521293	0.6956
266888351	C	0.100574	0.528047	0.703709
266888351	C	0.143092	0.361353	0.827053
266888351	H	0.188234	0.476273	0.616087
266888351	O	0.182539	0.586786	0.69077
266888351	H	0.118759	0.380941	0.83382
266888351	H	0.2471	0.483755	0.776329
266888351	C	0.250415	0.489199	0.761322
266888351	C	0.100372	0.374724	0.614403
266888351	O	0.240149	0.447846	0.619205
266888351	H	0.107599	0.454927	0.657765
266888351	O	0.17673	0.377903	0.601739
266888351	O	0.256005	0.570144	0.749542
266888351	C	0.255611	0.475461	0.746143
266888351	C	0.256238	0.501966	0.722173
266888351	H	0.11857	0.354038	0.750383
266888351	H	0.209862	0.56268	0.756037
266888351	O	0.104799	0.396697	0.777484
266888351	O	0.0993075	0.519357	0.754032
266888351	O	0.257029	0.523716	0.78736
266888351	H	0.257623	0.422002	0.8176
266888351	C	0.156141	0.355158	0.812775
266888351	C	0.167933	0.350119	0.780124
266888351	H	0.249371	0.454457	0.609818
266888351	O	0.0968727	0.463767	0.652605
266888351	Fe	0.139603	0.502387	0.599988
266888351	O	0.397686	0.502275	0.646414
266888351	O	0.223412	0.474116	0.608069
266888351	H	0.373544	0.359854	0.839204
266888351	O	0.257838	0.399141	0.742742
266888351	O	0.341439	0.352378	0.779783
266888351	H	0.221721	0.579544	0.747865
266888351	F	0.15902	0.590445	0.660802
266888351	O	0.100533	0.481511	0.799027
266888351	O	0.162812	0.347551	0.761603
266888351	C	0.259558	0.482176	0.726895
266888351	H	0.249858	0.42706	0.698522
266888351	O	0.0973399	0.401455	0.811322
266888351	C	0.365747	0.37377	0.841295
266888351	H	0.169713	0.348677	0.819182
266888351	C	0.2973	0.346669	0.692955
266888351	C	0.339555	0.594083	0.79468
266888351	H	0.258033	0.547602	0.614778
266888351	H	0.265045	0.414015	0.707593
266888351	C	0.412831	0.557677	0.744061
266888351	H	0.096704	0.427793	0.601173
266888351	H	0.263726	0.472099	0.714902
266888351	H	0.276852	0.346941	0.717751
266888351	H	0.215042	0.581167	0.617199
266888351	H	0.26016	0.358674	0.832873
266888351	C	0.378748	0.540435	0.842382
266888351	C	0.425884	0.487749	0.803697
266888351	C	0.258762	0.50882	0.701179
266888351	F	0.416844	0.346632	0.824148
266888351	O	0.263067	0.355864	0.595219
266888351	H	0.389337	0.350557	0.649239
266888351	O	0.408558	0.515085	0.827963
266888351	C	0.197243	0.590797	0.701074
266888351	O	0.425126	0.514332	0.706626
266888351	C	0.336237	0.394323	0.837641
266888351	H	0.292726	0.364513	0.647616
266888351	O	0.27592	0.47091	0.833965
266888351	C	0.0994694	0.485735	0.597591
266888351	H	0.171658	0.576155	0.760382
266888351	C	0.2353	0.589197	0.696064
266888351	C	0.298148	0.408785	0.752953
266888351	O	0.272681	0.50303	0.690191
266888351	F	0.329395	0.494978	0.747735
266888351	O	0.246428	0.592037	0.816439
266888351	H	0.390627	0.489483	0.703357
266888351	H	0.35075	0.593596	0.7398
266888351	C	0.390537	0.373599	0.682303
266888351	H	0.424072	0.50013	0.705615
266888351	Fe	0.274904	0.583087	0.81267
266888351	C	0.25154	0.591758	0.683179
266888351	O	0.39635	0.56727	0.742966
266888351	O	0.346826	0.584567	0.611319
266888351	C	0.388605	0.495328	0.75393
266888351	O	0.354458	0.49431	0.714179
266888351	H	0.32061	0.395619	0.832732
266888351	H	0.41464	0.351131	0.707337
266888351	C	0.367127	0.433683	0.647312
266888351	C	0.400441	0.492853	0.771974
266888351	H	0.353593	0.580976	0.62389
266888351	C	0.279966	0.583921	0.719508
266888351	O	0.42572	0.403571	0.819704
266888351	H	0.388843	0.362806	0.803548
266888351	O	0.29447	0.530698	0.623813
266888351	O	0.260464	0.558705	0.686102
266888351	O	0.371557	0.529978	0.730954
266888351	O	0.337077	0.555806	0.737619
266888351	C	0.396649	0.580405	0.625064
266888351	C	0.286497	0.371841	0.616891
266888351	O	0.399817	0.500821	0.739921
266888351	O	0.269441	0.560561	0.83262
266888351	Fe	0.283389	0.551493	0.644437
266888351	C	0.365894	0.516822	0.653886
266888351	O	0.367283	0.56501	0.708989
266888351	H	0.289242	0.459783	0.796969
266888351	H	0.339294	0.500439	0.788555
266888351	H	0.38072	0.47952	0.626779
266888351	O	0.27562	0.503512	0.629142
266888351	O	0.307664	0.381675	0.692976
266888351	H	0.341561	0.385643	0.762249
266888351	C	0.420447	0.507492	0.797605
266888351	C	0.365614	0.428179	0.683994
266888351	O	0.278101	0.546022	0.75403
266888351	C	0.285501	0.396504	0.764681
266888351	O	0.304365	0.574274	0.810301
266888351	C	0.291686	0.550399	0.717012
266888351	O	0.3301	0.5281	0.721981
266888351	Fe	0.416211	0.424176	0.838554
266888351	C	0.391458	0.355133	0.742944
266888351	H	0.26826	0.505561	0.823397
266888351	O	0.36959	0.495576	0.754431
266888351	O	0.281126	0.474252	0.660983
266888351	Fe	0.300568	0.454367	0.833087
266888351	O	0.393524	0.546491	0.70025
266888351	H	0.286936	0.469091	0.647973
266888351	C	0.327665	0.546548	0.724644
266888351	H	0.283923	0.373359	0.786471
266888351	C	0.359917	0.54017	0.81135
266888351	O	0.368176	0.378682	0.733741
266888351	C	0.333215	0.48355	0.826187
266888351	C	0.269995	0.357042	0.613373
266888351	O	0.272618	0.575689	0.660704
266888351	H	0.316565	0.562578	0.629915
266888351	H	0.388933	0.550666	0.618181
266888351	C	0.319449	0.405749	0.752724
266888351	C	0.278186	0.563111	0.724676
266888351	H	0.391034	0.529554	0.666875
266888351	C	0.399526	0.353151	0.679417
266888351	C	0.34574	0.37567	0.835171
266888351	O	0.393691	0.376156	0.80723
266888351	C	0.40509	0.575806	0.644856
266888351	C	0.423294	0.451225	0.802341
266888351	O	0.42239	0.449394	0.820757
266888351	C	0.343532	0.509454	0.800623
266888351	C	0.398439	0.427579	0.62946
266888351	O	0.305997	0.557846	0.782027
266888351	H	0.393808	0.504299	0.687728
266888351	H	0.396753	0.382562	0.758827
266888351	O	0.393842	0.40976	0.734812
266888351	O	0.262858	0.558814	0.622662
266888351	C	0.322886	0.393287	0.618782
266888351	H	0.416952	0.525177	0.622077
266888351	O	0.315011	0.480731	0.824403
266888351	H	0.286567	0.437047	0.801282
266888351	C	0.297552	0.591742	0.712579
266888351	O	0.364801	0.448536	0.602318
266888351	H	0.291008	0.419895	0.744104
266888351	H	0.402917	0.52442	0.777486
266888351	O	0.314746	0.359941	0.829012
266888351	H	0.289624	0.535063	0.720705
266888351	C	0.326169	0.390087	0.764819
266888351	H	0.267481	0.593243	0.723875
266888351	C	0.4082	0.422256	0.64653
266888351	C	0.265998	0.509098	0.838864
266888351	F	0.306582	0.422261	0.683885
266888351	C	0.297906	0.371604	0.634066
266888351	C	0.312402	0.570896	0.793781
266888351	H	0.365893	0.554179	0.808188
266888351	O	0.413203	0.53996	0.739961
266888351	O	0.390918	0.551464	0.832972
266888351	O	0.343195	0.527358	0.76238
266888351	H	0.347993	0.48115	0.716302
266888351	C	0.354697	0.53576	0.775232
266888351	C	0.287753	0.513799	0.618153
266888351	F	0.403821	0.499936	0.600838
266888351	C	0.313811	0.376984	0.775245
266888351	O	0.26633	0.564576	0.791061
266888351	O	0.385743	0.502952	0.698943
266888351	C	0.421037	0.363923	0.763782
266888351	O	0.333726	0.367839	0.663605
266888351	C	0.405648	0.473565	0.777408
266888351	O	0.266363	0.532701	0.657979
266888351	C	0.375221	0.530365	0.666626
266888351	C	0.363088	0.531947	0.830621
266888351	Fe	0.371499	0.400365	0.715901
266888351	O	0.361148	0.588176	0.74921
266888351	C	0.310911	0.363262	0.698451
266888351	O	0.331114	0.399539	0.662372
266888351	C	0.379088	0.502373	0.643426
266888351	C	0.311623	0.394057	0.60111
266888351	H	0.329878	0.583608	0.708483
266888351	O	0.371318	0.354817	0.712654
266888351	C	0.316635	0.381407	0.635422
266888351	C	0.390801	0.565705	0.612131
266888351	H	0.39926	0.461544	0.770854
266888351	O	0.286432	0.537031	0.815607
266888351	C	0.312633	0.528765	0.666133
266888351	O	0.408065	0.555718	0.650301
266888351	C	0.408086	0.50964	0.781455
266888351	C	0.275576	0.542676	0.830888
266888351	H	0.39302	0.424471	0.733639
266888351	O	0.387548	0.423296	0.825503
266888351	H	0.406571	0.427303	0.617015
266888351	H	0.306729	0.579612	0.642899
266888351	O	0.369759	0.415609	0.602162
266888351	H	0.338929	0.398091	0.619716
266888351	O	0.349432	0.391134	0.698901
266888351	C	0.352781	0.514056	0.835035
266888351	C	0.323228	0.587268	0.784904
266888351	C	0.314519	0.577857	0.709619
266888351	C	0.264014	0.575156	0.677458
266888351	O	0.295714	0.447917	0.803413
266888351	H	0.406647	0.420483	0.676974
266888351	C	0.334746	0.52808	0.666907
266888351	Fe	0.366974	0.558642	0.74004
266888351	O	0.346415	0.429682	0.685451
266888351	O	0.420552	0.535901	0.612321
266888351	C	0.37774	0.433206	0.629708
266888351	O	0.304902	0.544521	0.664523
266888351	Fe	0.397512	0.522456	0.720095
266888351	O	0.325938	0.436014	0.833044
266888351	C	0.293995	0.381541	0.776344
266888351	O	0.327719	0.357456	0.704612
266888351	C	0.293135	0.507086	0.598051
266888351	C	0.311558	0.557671	0.714833
266888351	O	0.342321	0.472599	0.83879
266888351	Fe	0.273461	0.504701	0.659691
266888351	C	0.269673	0.558985	0.743514
266888351	O	0.370409	0.487469	0.632924
266888351	C	0.418112	0.471172	0.79394
266888351	H	0.3363	0.554484	0.686927
266888351	F	0.412606	0.57729	0.815759
266888351	C	0.293814	0.382554	0.60014
266888351	H	0.380143	0.434023	0.83111
266888351	F	0.296518	0.518968	0.781258
266888351	H	0.336932	0.502209	0.648109
266888351	C	0.331154	0.411414	0.734559
266888351	H	0.389957	0.428014	0.81196
266888351	C	0.419344	0.522136	0.814738
266888351	H	0.346586	0.584114	0.804715
266888351	C	0.364708	0.543315	0.67948
266888351	C	0.344848	0.543884	0.677598
266888351	C	0.397782	0.424138	0.664076
266888351	C	0.32816	0.382574	0.654725
266888351	C	0.321907	0.357663	0.78244
266888351	C	0.333442	0.358625	0.829008
266888351	Fe	0.419811	0.560012	0.835643
266888351	O	0.393418	0.383796	0.698465
266888351	O	0.376135	0.423121	0.698843
266888351	Fe	0.350061	0.511309	0.738483
266888351	H	0.414171	0.554735	0.66332
266888351	C	0.342769	0.502488	0.820428
266888351	C	0.375204	0.362658	0.729724
266888351	C	0.377031	0.429369	0.66498
266888351	C	0.369237	0.432489	0.610774
266888351	C	0.352336	0.528594	0.795861
266888351	C	0.263421	0.397594	0.761035
266888351	C	0.345657	0.514365	0.654561
266888351	H	0.269426	0.566635	0.6126
266888351	O	0.30307	0.570327	0.63158
266888351	O	0.36685	0.549308	0.769832
266888351	O	0.350826	0.413539	0.734726
266888351	C	0.375751	0.552993	0.696686
266888351	H	0.35227	0.436841	0.648082
266888351	H	0.407012	0.40622	0.728303
266888351	Fe	0.421608	0.37319	0.822275
266888351	H	0.289979	0.471989	0.672873
266888351	O	0.303352	0.512117	0.662823
266888351	C	0.402702	0.368698	0.75545
266888351	Fe	0.352177	0.36417	0.688593
266888351	O	0.320823	0.415159	0.718745
266888351	O	0.374607	0.375974	0.672439
266888351	Fe	0.327658	0.406363	0.690754
266888351	H	0.306142	0.478263	0.606669
266888351	Fe	0.281352	0.541262	0.785211
266888351	C	0.119661	0.553257	0.841587
266888351	O	0.178498	0.588809	0.760821
266888351	O	0.284089	0.430025	0.839881
266888351	O	0.427218	0.539292	0.81506
266888351	O	0.408108	0.58857	0.65807
266888351	H	0.177007	0.391263	0.595754
266888351	O	0.427919	0.436907	0.791377
266888351	O	0.26461	0.345016	0.626893
266888351	C	0.21678	0.594427	0.689876
266888351	O	0.195908	0.592813	0.720179
266888351	O	0.12085	0.344798	0.76153
266888351	H	0.223809	0.579887	0.595842
266888351	O	0.136022	0.38086	0.896613
266888351	C	0.12315	0.367127	0.895908
266888351	O	0.205015	0.37682	0.907115
266888351	O	0.174008	0.38821	0.909516
266888351	C	0.192569	0.390482	0.912129
266888351	O	0.13441	0.551888	0.0343662
266888351	C	0.197223	0.410954	0.919998
266888351	C	0.180836	0.422223	0.925973
266888351	Fe	0.139401	0.506051	0.90953
266888351	O	0.123951	0.503954	0.883288
266888351	C	0.128342	0.492034	0.869593
266888351	O	0.130033	0.473994	0.873196
266888351	O	0.140699	0.442059	0.897403
266888351	C	0.150543	0.437858	0.912822
266888351	O	0.164845	0.497177	0.894235
266888351	O	0.133501	0.478799	0.917048
266888351	Fe	0.117377	0.461593	0.898237
266888351	H	0.179082	0.464463	0.946541
266888351	F	0.144952	0.532224	0.901311
266888351	O	0.217326	0.554274	0.893225
266888351	C	0.229422	0.565136	0.883851
266888351	Fe	0.219906	0.540011	0.920682
266888351	O	0.237919	0.520607	0.907036
266888351	F	0.19816	0.52278	0.913969
266888351	C	0.183758	0.44183	0.897059
266888351	C	0.210557	0.420882	0.908509
266888351	C	0.171969	0.433671	0.911994
266888351	C	0.203836	0.437372	0.896633
266888351	H	0.17854	0.452325	0.887291
266888351	C	0.221436	0.578703	0.868675
266888351	H	0.244161	0.491267	0.881384
266888351	H	0.152848	0.439986	0.964934
266888351	O	0.161605	0.369063	0.00521219
266888351	Fe	0.152631	0.369467	0.0331195
266888351	O	0.141383	0.370613	0.0616274
266888351	C	0.154063	0.372877	0.0754955
266888351	O	0.179162	0.382454	0.040771
266888351	C	0.196413	0.377403	0.0449582
266888351	F	0.141935	0.394618	0.0271122
266888351	Fe	0.231005	0.360436	0.993262
266888351	O	0.247683	0.376043	0.0123683
266888351	O	0.219285	0.385133	0.984382
266888351	O	0.229118	0.389626	0.954551
266888351	C	0.21553	0.385539	0.965853
266888351	C	0.208424	0.409541	0.0326552
266888351	C	0.228125	0.392767	0.0583574
266888351	C	0.220896	0.425467	0.034698
266888351	C	0.211478	0.39324	0.0450253
266888351	H	0.227649	0.380324	0.0694158
266888351	H	0.193934	0.409932	0.0255992
266888351	H	0.17272	0.418008	0.938476
266888351	C	0.195953	0.363063	0.943713
266888351	C	0.196031	0.377787	0.958491
266888351	C	0.180113	0.379674	0.971635
266888351	H	0.179771	0.390865	0.983384
266888351	O	0.139124	0.494139	0.957476
266888351	O	0.156751	0.51055	0.934761
266888351	C	0.153071	0.506121	0.953061
266888351	O	0.141791	0.438902	0.929593
266888351	Fe	0.140993	0.467299	0.942377
266888351	O	0.14815	0.453834	0.968898
266888351	O	0.171096	0.472205	0.937041
266888351	O	0.111883	0.463118	0.949224
266888351	H	0.135601	0.450644	0.975685
266888351	O	0.193031	0.447028	0.0352941
266888351	C	0.212436	0.445322	0.0357748
266888351	Fe	0.217752	0.486529	0.0531828
266888351	O	0.214295	0.51212	0.0682206
266888351	O	0.152116	0.480577	0.0669186
266888351	O	0.203611	0.497004	0.0287759
266888351	Fe	0.173474	0.464296	0.0508064
266888351	O	0.194637	0.476052	0.0661171
266888351	O	0.151174	0.449213	0.0369178
266888351	O	0.173533	0.486301	0.0287856
266888351	O	0.173664	0.442701	0.0708216
266888351	C	0.186878	0.496733	0.0209135
266888351	H	0.157527	0.435934	0.0348604
266888351	H	0.148852	0.454958	0.0234296
266888351	O	0.222069	0.526475	0.94775
266888351	C	0.21612	0.535422	0.963008
266888351	O	0.220898	0.553032	0.966295
266888351	O	0.242264	0.559326	0.928429
266888351	Fe	0.236858	0.575898	0.95187
266888351	O	0.197372	0.55669	0.931528
266888351	O	0.126238	0.359352	0.021393
266888351	C	0.195905	0.575385	0.933559
266888351	C	0.183513	0.524156	0.963478
266888351	C	0.167964	0.503229	0.987674
266888351	C	0.200483	0.524836	0.974274
266888351	C	0.184532	0.50632	0.000332319
266888351	C	0.201636	0.516193	0.99298
266888351	C	0.167948	0.511505	0.968457
266888351	H	0.155449	0.494628	0.992341
266888351	H	0.215885	0.515115	0.000319848
266888351	H	0.183221	0.532194	0.95007
266888351	C	0.166562	0.363883	0.972211
266888351	C	0.161343	0.355873	0.991526
266888351	C	0.163533	0.577375	0.0659965
266888351	C	0.120572	0.536851	0.0642137
266888351	C	0.13696	0.52447	0.0674259
266888351	H	0.150696	0.525659	0.0589852
266888351	H	0.16633	0.505115	0.881769
266888351	H	0.17598	0.470096	0.923217
266888351	C	0.119711	0.550907	0.0466985
266888351	H	0.208607	0.357258	0.935035
266888351	O	0.118057	0.58422	0.891102
266888351	O	0.253398	0.361877	0.975158
266888351	C	0.103749	0.532651	0.0758395
266888351	C	0.219396	0.512812	0.0856236
266888351	C	0.152201	0.494875	0.0795616
266888351	C	0.135436	0.50856	0.080569
266888351	O	0.201324	0.359515	0.0493949
266888351	C	0.161684	0.40728	0.0859151
266888351	O	0.170408	0.363754	0.0748513
266888351	C	0.150581	0.390078	0.0884598
266888351	C	0.159701	0.580526	0.0880221
266888351	O	0.24772	0.567522	0.888199
266888351	O	0.22369	0.460077	0.0393426
266888351	C	0.178749	0.565139	0.0588696
266888351	H	0.172687	0.40702	0.0753655
266888351	C	0.242541	0.40678	0.0576275
266888351	H	0.225102	0.415256	0.907191
266888351	H	0.185808	0.553299	0.0680866
266888351	Fe	0.163267	0.38245	0.882624
266888351	F	0.210257	0.359866	0.0106994
266888351	C	0.185612	0.569018	0.039009
266888351	H	0.246383	0.399628	0.876582
266888351	O	0.213472	0.366811	0.868496
266888351	O	0.19061	0.38996	0.869441
266888351	O	0.209474	0.465209	0.871293
266888351	C	0.202009	0.556293	0.0304304
266888351	C	0.24004	0.422347	0.0438322
266888351	O	0.153304	0.411217	0.876517
266888351	O	0.172935	0.356033	0.885779
266888351	O	0.234447	0.443528	0.879563
266888351	O	0.208063	0.540979	0.039551
266888351	H	0.136649	0.528702	0.863372
266888351	C	0.208186	0.384108	0.865084
266888351	C	0.21636	0.448324	0.881443
266888351	C	0.24079	0.402028	0.861532
266888351	H	0.141444	0.410338	0.867563
266888351	H	0.235818	0.460882	0.0772602
266888351	O	0.235415	0.47629	0.0768677
266888351	F	0.240293	0.497026	0.041623
266888351	H	0.250555	0.434975	0.0443871
266888351	H	0.249176	0.479706	0.0738799
266888351	C	0.167104	0.442913	0.0884105
266888351	C	0.221615	0.397946	0.854688
266888351	H	0.16442	0.415653	0.867353
266888351	H	0.102518	0.379741	0.865687
266888351	C	0.163738	0.351344	0.955223
266888351	O	0.109596	0.554064	0.858092
266888351	O	0.11497	0.516209	0.924342
266888351	H	0.1044	0.519922	0.914597
266888351	H	0.254209	0.365178	0.886001
266888351	O	0.151506	0.37497	0.856895
266888351	O	0.100835	0.442248	0.880622
266888351	H	0.174526	0.573655	0.898392
266888351	O	0.257163	0.400139	0.992168
266888351	O	0.101839	0.560427	0.0421442
266888351	C	0.167269	0.582626	0.909712
266888351	C	0.178348	0.584576	0.0269697
266888351	C	0.17639	0.584183	0.928782
266888351	O	0.102184	0.446759	0.921821
266888351	O	0.210368	0.560787	0.011426
266888351	C	0.101331	0.37204	0.896655
266888351	H	0.220457	0.472187	0.864447
266888351	C	0.178776	0.351381	0.9406
266888351	C	0.254188	0.412287	0.847937
266888351	H	0.223761	0.554791	0.0109088
266888351	Fe	0.201574	0.350147	0.890534
266888351	Fe	0.258783	0.388306	0.963465
266888351	O	0.210317	0.586411	0.938949
266888351	H	0.231511	0.547603	0.0724938
266888351	C	0.24359	0.540083	0.0795056
266888351	C	0.135755	0.588028	0.888226
266888351	C	0.220927	0.571708	0.848744
266888351	C	0.147182	0.358229	0.848493
266888351	H	0.10671	0.567752	0.0299626
266888351	C	0.254657	0.523829	0.89918
266888351	O	0.128393	0.35036	0.889894
266888351	C	0.0984177	0.454709	0.938601
266888351	C	0.130817	0.501135	0.850033
266888351	C	0.258817	0.390132	0.00822047
266888351	H	0.100753	0.476846	0.0572235
266888351	H	0.396642	0.483113	0.845216
266888351	H	0.184243	0.589064	0.011685
266888351	C	0.133816	0.521675	0.848924
266888351	C	0.252541	0.500992	0.87108
266888351	O	0.254351	0.572702	0.0548368
266888351	C	0.16607	0.592069	0.945241
266888351	O	0.142275	0.588511	0.870418
266888351	H	0.200022	0.345946	0.978757
266888351	C	0.153781	0.590138	0.0524763
266888351	O	0.261381	0.360647	0.847801
266888351	O	0.0993789	0.587395	0.000222215
266888351	H	0.11081	0.432334	0.876543
266888351	C	0.118768	0.505588	0.0931034
266888351	O	0.167268	0.499997	0.0890111
266888351	H	0.250448	0.421898	0.948416
266888351	H	0.374866	0.362615	0.021547
266888351	C	0.25963	0.406742	0.0713579
266888351	C	0.291597	0.348484	0.91556
266888351	H	0.0953006	0.361988	0.926195
266888351	O	0.258834	0.345363	0.938043
266888351	H	0.296529	0.349568	0.930619
266888351	C	0.427252	0.515641	0.962534
266888351	H	0.0988453	0.580059	0.986822
266888351	O	0.263491	0.391646	0.0817628
266888351	H	0.259131	0.587168	0.0505727
266888351	H	0.343763	0.34798	0.866715
266888351	C	0.257959	0.495319	0.851433
266888351	C	0.259172	0.518912	0.878407
266888351	H	0.260915	0.459972	0.911636
266888351	H	0.0999972	0.450305	0.868253
266888351	C	0.148499	0.590919	0.906616
266888351	O	0.375446	0.592277	0.0462391
266888351	O	0.0964871	0.488609	0.0639849
266888351	C	0.238848	0.52231	0.0892011
266888351	H	0.119083	0.345467	0.0668002
266888351	H	0.354508	0.58832	0.855078
266888351	F	0.359275	0.47493	0.872345
266888351	Fe	0.418449	0.383106	0.0913747
266888351	C	0.261334	0.360919	0.92792
266888351	C	0.280057	0.348009	0.876207
266888351	O	0.26348	0.416502	0.95234
266888351	H	0.267561	0.436242	0.913919
266888351	O	0.264306	0.447242	0.904476
266888351	H	0.400552	0.48017	0.867188
266888351	C	0.161992	0.594295	0.0339809
266888351	H	0.364635	0.497629	0.0290662
266888351	C	0.101837	0.518814	0.0911051
266888351	O	0.271615	0.484081	0.954686
266888351	O	0.26953	0.590097	0.914021
266888351	C	0.295666	0.380901	0.0499122
266888351	H	0.422153	0.543533	0.0479169
266888351	O	0.356077	0.375088	0.0848017
266888351	Fe	0.370103	0.537891	0.00660653
266888351	C	0.369242	0.581439	0.910945
266888351	H	0.311896	0.497999	0.863966
266888351	O	0.319241	0.436353	0.0115477
266888351	C	0.415018	0.518276	0.923028
266888351	O	0.371501	0.349492	0.930725
266888351	C	0.306032	0.3995	0.0491328
266888351	C	0.321243	0.423418	0.0250973
266888351	H	0.197304	0.345153	0.0926692
266888351	H	0.283152	0.42129	0.079959
266888351	H	0.356731	0.53854	0.928026
266888351	O	0.392502	0.518333	0.0183395
266888351	H	0.398332	0.438936	0.871037
266888351	H	0.270848	0.364568	0.0367929
266888351	O	0.354522	0.536138	0.0309753
266888351	C	0.274705	0.393463	0.0224982
266888351	O	0.264654	0.567807	0.964583
266888351	C	0.322661	0.460138	0.928715
266888351	C	0.273524	0.422843	0.854185
266888351	H	0.404152	0.443885	0.946498
266888351	Fe	0.394701	0.578955	0.99753
266888351	O	0.262068	0.378178	0.934842
266888351	C	0.288225	0.492464	0.957801
266888351	Fe	0.378667	0.435045	0.97302
266888351	O	0.338648	0.419412	0.0320135
266888351	C	0.36107	0.461348	0.0390783
266888351	Fe	0.409199	0.517313	0.857697
266888351	H	0.319732	0.433699	0.975668
266888351	O	0.314021	0.350958	0.0459842
266888351	O	0.289873	0.481053	0.892274
266888351	C	0.315636	0.571922	0.971281
266888351	O	0.324565	0.497463	0.871772
266888351	Fe	0.333212	0.46815	0.867338
266888351	C	0.399236	0.589858	0.891253
266888351	O	0.393652	0.489355	0.858346
266888351	H	0.417618	0.449061	0.867749
266888351	O	0.353879	0.515215	0.995875
266888351	H	0.319169	0.556717	0.969411
266888351	C	0.375959	0.390046	0.849854
266888351	H	0.267685	0.423884	0.964414
266888351	H	0.2988	0.551665	0.898229
266888351	H	0.404119	0.526562	0.0170069
266888351	C	0.305459	0.467737	0.93639
266888351	H	0.274238	0.546579	0.870133
266888351	C	0.287282	0.409506	0.0193014
266888351	H	0.353581	0.458468	0.930439
266888351	H	0.359959	0.525436	0.0857389
266888351	C	0.28138	0.568063	0.955782
266888351	C	0.359628	0.492729	0.0862597
266888351	C	0.279978	0.377893	0.0365203
266888351	C	0.263577	0.545353	0.0766467
266888351	C	0.267956	0.358194	0.891062
266888351	Fe	0.337928	0.456416	0.999901
266888351	H	0.325852	0.361533	0.00862795
266888351	O	0.279079	0.424856	0.872402
266888351	O	0.423556	0.576494	0.00684037
266888351	O	0.408682	0.539383	0.0496608
266888351	F	0.375517	0.403214	0.0395936
266888351	H	0.326459	0.498444	0.97066
266888351	C	0.264793	0.474688	0.848502
266888351	O	0.425353	0.541926	0.857257
266888351	H	0.374892	0.413681	0.0681113
266888351	O	0.355307	0.428303	0.954236
266888351	H	0.410735	0.422317	0.95026
266888351	H	0.413186	0.567795	0.0775777
266888351	H	0.421899	0.369693	0.0563835
266888351	Fe	0.285836	0.452555	0.882298
266888351	H	0.393729	0.561211	0.90566
266888351	H	0.361634	0.460694	0.0812241
266888351	O	0.348294	0.556528	0.99515
266888351	C	0.367801	0.395976	0.984648
266888351	O	0.326626	0.446546	0.97293
266888351	C	0.278574	0.534336	0.0852516
266888351	O	0.40312	0.441532	0.990458
266888351	C	0.362204	0.384136	0.949831
266888351	C	0.397776	0.388751	0.85354
266888351	O	0.366825	0.582155	0.98548
266888351	O	0.408196	0.403003	0.859232
266888351	C	0.361152	0.361298	0.922049
266888351	H	0.297584	0.575132	0.894219
266888351	O	0.357075	0.476449	0.986714
266888351	H	0.293896	0.539185	0.0814851
266888351	O	0.340722	0.440112	0.862573
266888351	H	0.303721	0.473153	0.995971
266888351	O	0.404307	0.558726	0.976483
266888351	C	0.362329	0.533997	0.0477562
266888351	C	0.329662	0.373784	0.938688
266888351	O	0.295042	0.355157	0.962444
266888351	C	0.360196	0.511912	0.0772699
266888351	H	0.393703	0.540502	0.931552
266888351	H	0.320007	0.370574	0.925647
266888351	C	0.417076	0.524592	0.902592
266888351	O	0.375626	0.464915	0.962992
266888351	C	0.365393	0.40738	0.854116
266888351	H	0.377369	0.384635	0.947658
266888351	C	0.268351	0.562161	0.0638751
266888351	O	0.360629	0.546543	0.916605
266888351	O	0.410704	0.578223	0.85884
266888351	C	0.349747	0.574264	0.987025
266888351	C	0.364332	0.418588	0.0790365
266888351	C	0.36429	0.477617	0.0530619
266888351	O	0.337706	0.368591	0.0140849
266888351	C	0.356949	0.566335	0.921267
266888351	O	0.371274	0.445365	0.0383258
266888351	C	0.333857	0.384609	0.972317
266888351	O	0.399891	0.57295	0.0745297
266888351	C	0.350431	0.374823	0.935229
266888351	C	0.410899	0.431069	0.00470515
266888351	C	0.30357	0.412591	0.0322179
266888351	O	0.343239	0.571277	0.933746
266888351	C	0.325309	0.486769	0.959674
266888351	H	0.348663	0.520373	0.983423
266888351	O	0.289441	0.51081	0.967853
266888351	H	0.275807	0.514292	0.972439
266888351	H	0.284931	0.420357	0.00674231
266888351	H	0.315919	0.404732	0.060371
266888351	O	0.289253	0.387747	0.96599
266888351	H	0.341676	0.514987	0.00361588
266888351	O	0.408341	0.516191	0.888158
266888351	C	0.306742	0.482192	0.95074
266888351	C	0.30715	0.363224	0.0588941
266888351	C	0.405935	0.530406	0.936497
266888351	O	0.271881	0.4232	0.0708635
266888351	H	0.276768	0.483421	0.898518
266888351	H	0.333311	0.381601	0.0192113
266888351	C	0.33136	0.583583	0.979643
266888351	C	0.387838	0.576433	0.903191
266888351	C	0.346631	0.410632	0.846429
266888351	O	0.284112	0.561913	0.93752
266888351	C	0.30094	0.373485	0.961868
266888351	O	0.314106	0.363719	0.0767181
266888351	C	0.363401	0.49658	0.0451808
266888351	H	0.354834	0.507753	0.849372
266888351	O	0.305622	0.458516	0.86144
266888351	C	0.415203	0.580592	0.877277
266888351	O	0.263893	0.463083	0.864121
266888351	O	0.343082	0.38065	0.0557888
266888351	O	0.406408	0.444471	0.860083
266888351	O	0.385047	0.533574	0.979449
266888351	C	0.29724	0.580443	0.965402
266888351	O	0.383712	0.405459	0.979573
266888351	Fe	0.266219	0.56218	0.91262
266888351	O	0.356176	0.35618	0.904503
266888351	C	0.354714	0.387025	0.968741
266888351	C	0.346362	0.408116	0.0800868
266888351	H	0.328233	0.389765	0.986255
266888351	O	0.398271	0.40356	0.0906231
266888351	H	0.29178	0.46293	0.931326
266888351	H	0.32152	0.497917	0.886265
266888351	C	0.362574	0.47516	0.0743051
266888351	O	0.361443	0.396519	0.00240154
266888351	O	0.405383	0.373506	0.846961
266888351	H	0.406367	0.389429	0.0555731
266888351	C	0.360193	0.473953	0.96787
266888351	C	0.349151	0.387289	0.07261
266888351	H	0.346549	0.419624	0.962282
266888351	O	0.267389	0.532403	0.909485
266888351	C	0.33693	0.429638	0.847433
266888351	H	0.360724	0.421572	0.942882
266888351	O	0.330453	0.46325	0.89607
266888351	C	0.32032	0.454008	0.908231
266888351	C	0.361797	0.514144	0.0573715
266888351	H	0.371767	0.419866	0.861396
266888351	O	0.3837	0.532127	0.8588
266888351	Fe	0.343112	0.352658	0.0400122
266888351	O	0.418907	0.580003	0.0383054
266888351	O	0.399073	0.419304	0.0143183
266888351	C	0.411526	0.529721	0.956689
266888351	O	0.398268	0.430972	0.948207
266888351	C	0.39989	0.541435	0.971588
266888351	O	0.373168	0.355806	0.0350838
266888351	Fe	0.340413	0.349924	0.089789
266888351	O	0.286498	0.567305	0.0609303
266888351	H	0.311579	0.475916	0.0167924
266888351	O	0.307252	0.441784	0.901156
266888351	Fe	0.367215	0.420485	0.0201831
266888351	O	0.315905	0.476865	0.002849
266888351	C	0.342775	0.47647	0.954229
266888351	H	0.400471	0.587753	0.075413
266888351	C	0.341362	0.464645	0.93774
266888351	O	0.34658	0.46436	0.0271737
266888351	O	0.409678	0.375964	0.0630626
266888351	O	0.369788	0.549137	0.0570978
266888351	O	0.386471	0.5593	0.0169129
266888351	O	0.361259	0.437881	0.997344
266888351	C	0.273562	0.35724	0.910728
266888351	O	0.290199	0.56282	0.893631
266888351	C	0.26865	0.53281	0.86542
266888351	Fe	0.39289	0.565384	0.04571
266888351	H	0.39582	0.507058	0.00866994
266888351	C	0.321335	0.377695	0.957158
266888351	C	0.275167	0.347485	0.85401
266888351	H	0.0979979	0.459636	0.0902177
266888351	H	0.226305	0.55674	0.845336
266888351	H	0.219048	0.588638	0.982666
266888351	C	0.270251	0.528103	0.845505
266888351	H	0.0950424	0.372981	0.00234146
266888351	Fe	0.0953732	0.575695	0.875222
266888351	Fe	0.129295	0.620659	0.13541
266888351	O	0.15127	0.63151	0.153086
266888351	F	0.112658	0.641491	0.142994
266888351	O	0.133589	0.635696	0.245045
266888351	O	0.206246	0.659498	0.210002
266888351	O	0.238872	0.688762	0.217835
266888351	Fe	0.229888	0.712309	0.198708
266888351	O	0.222204	0.736794	0.182602
266888351	C	0.206104	0.747146	0.183575
266888351	O	0.189121	0.738952	0.182257
266888351	O	0.208261	0.682755	0.153273
266888351	O	0.181248	0.701845	0.158164
266888351	C	0.193403	0.692442	0.146668
266888351	O	0.246957	0.702786	0.17423
266888351	Fe	0.207654	0.671408	0.181046
266888351	O	0.205578	0.698576	0.190997
266888351	Fe	0.179967	0.710567	0.187926
266888351	O	0.211856	0.721948	0.222307
266888351	O	0.152136	0.722334	0.182263
266888351	O	0.180187	0.718334	0.216695
266888351	C	0.194768	0.716185	0.227575
266888351	O	0.166507	0.684471	0.196504
266888351	O	0.211739	0.642941	0.169493
266888351	O	0.236909	0.674339	0.184446
266888351	O	0.1786	0.665225	0.173991
266888351	C	0.247861	0.684469	0.173063
266888351	C	0.16382	0.670682	0.184476
266888351	H	0.222841	0.638658	0.178199
266888351	H	0.218138	0.644254	0.156916
266888351	H	0.143392	0.712218	0.187867
266888351	H	0.151499	0.733823	0.191385
266888351	Fe	0.12723	0.73579	0.127506
266888351	O	0.129617	0.707473	0.137313
266888351	F	0.146204	0.743177	0.147007
266888351	C	0.136821	0.674117	0.160932
266888351	C	0.129421	0.663806	0.194596
266888351	C	0.143192	0.666385	0.178837
266888351	H	0.134775	0.660269	0.209374
266888351	H	0.147868	0.677701	0.14982
266888351	C	0.195693	0.673662	0.274823
266888351	C	0.184427	0.684651	0.242348
266888351	C	0.193196	0.703273	0.24513
266888351	C	0.201572	0.70715	0.263426
266888351	C	0.186888	0.669699	0.256718
266888351	H	0.176051	0.681548	0.229217
266888351	H	0.207464	0.722218	0.264842
266888351	C	0.134373	0.608394	0.220993
266888351	C	0.179205	0.702893	0.113976
266888351	C	0.187439	0.688412	0.126001
266888351	C	0.182102	0.669174	0.122479
266888351	H	0.190486	0.658522	0.131483
266888351	H	0.183191	0.717931	0.117217
266888351	H	0.219406	0.655013	0.213363
266888351	H	0.235369	0.69395	0.231076
266888351	O	0.172488	0.64476	0.234593
266888351	C	0.178715	0.649052	0.252546
266888351	O	0.178817	0.635042	0.267222
266888351	C	0.167348	0.834923	0.115483
266888351	O	0.125675	0.76371	0.119004
266888351	O	0.162019	0.817175	0.217575
266888351	C	0.168673	0.810208	0.201411
266888351	O	0.16199	0.815208	0.184753
266888351	O	0.222869	0.784149	0.130869
266888351	O	0.1225	0.809605	0.180522
266888351	Fe	0.138429	0.833151	0.173786
266888351	O	0.14368	0.821229	0.146291
266888351	C	0.118111	0.834014	0.247391
266888351	H	0.146189	0.806851	0.148958
266888351	C	0.205589	0.805173	0.208053
266888351	C	0.223747	0.777608	0.193149
266888351	C	0.187449	0.797227	0.201831
266888351	C	0.205805	0.768813	0.187346
266888351	C	0.187907	0.779355	0.191261
266888351	C	0.223942	0.796126	0.203209
266888351	H	0.237615	0.769436	0.190243
266888351	H	0.174216	0.776293	0.183999
266888351	H	0.206087	0.818832	0.215843
266888351	C	0.185816	0.802741	0.120641
266888351	C	0.168216	0.812438	0.115018
266888351	H	0.199111	0.811387	0.125439
266888351	F	0.139318	0.632168	0.28638
266888351	Fe	0.191712	0.731759	0.321064
266888351	O	0.201543	0.687332	0.313434
266888351	O	0.177071	0.736684	0.293844
266888351	O	0.212103	0.715868	0.304038
266888351	C	0.206982	0.698381	0.299801
266888351	O	0.2093	0.755155	0.313445
266888351	C	0.218941	0.766605	0.324845
266888351	H	0.173	0.750798	0.292757
266888351	H	0.164685	0.729687	0.295292
266888351	C	0.202686	0.692489	0.278941
266888351	H	0.196268	0.663334	0.286838
266888351	C	0.239861	0.821436	0.275409
266888351	C	0.225932	0.793844	0.298618
266888351	C	0.222405	0.787435	0.318775
266888351	C	0.233788	0.813672	0.294989
266888351	H	0.224176	0.782177	0.286958
266888351	C	0.187288	0.781667	0.120286
266888351	C	0.20731	0.771983	0.126267
266888351	O	0.208884	0.753079	0.125682
266888351	H	0.233348	0.774668	0.135088
266888351	H	0.131393	0.821733	0.138009
266888351	F	0.252032	0.726914	0.209102
266888351	H	0.254169	0.687864	0.217047
266888351	H	0.131764	0.664325	0.312542
266888351	O	0.105681	0.740042	0.147517
266888351	O	0.173448	0.708972	0.325518
266888351	O	0.182456	0.610673	0.152558
266888351	O	0.106659	0.829135	0.232949
266888351	H	0.172316	0.623349	0.261782
266888351	H	0.131218	0.724288	0.317337
266888351	O	0.105305	0.611962	0.118876
266888351	O	0.130968	0.770041	0.330123
266888351	O	0.133786	0.669413	0.272456
266888351	O	0.170985	0.63123	0.117679
266888351	C	0.242399	0.803866	0.210343
266888351	C	0.235992	0.81724	0.331593
266888351	O	0.166348	0.82452	0.33016
266888351	C	0.113915	0.698238	0.145179
266888351	C	0.124639	0.685112	0.27684
266888351	C	0.241256	0.824146	0.312438
266888351	C	0.165664	0.663983	0.110506
266888351	O	0.121507	0.728472	0.327882
266888351	C	0.120767	0.67617	0.313464
266888351	O	0.139464	0.638781	0.112659
266888351	C	0.124299	0.624156	0.232668
266888351	C	0.11793	0.682956	0.16015
266888351	C	0.109501	0.668371	0.192486
266888351	C	0.157841	0.644082	0.112784
266888351	Fe	0.11866	0.643527	0.270333
266888351	O	0.123898	0.747672	0.292789
266888351	O	0.249119	0.799861	0.227785
266888351	H	0.157374	0.74165	0.331159
266888351	C	0.223342	0.800975	0.333453
266888351	C	0.111446	0.83308	0.268346
266888351	H	0.125381	0.618683	0.191606
266888351	O	0.255087	0.814384	0.267116
266888351	O	0.246312	0.726514	0.33357
266888351	H	0.148687	0.625735	0.166179
266888351	O	0.11607	0.693238	0.262186
266888351	C	0.108193	0.830948	0.309804
266888351	C	0.116945	0.689038	0.297086
266888351	H	0.136511	0.756218	0.293142
266888351	O	0.149635	0.730264	0.107942
266888351	O	0.108367	0.729007	0.108181
266888351	C	0.129375	0.606206	0.199726
266888351	C	0.253471	0.709088	0.332721
266888351	O	0.237315	0.604741	0.225982
266888351	H	0.229712	0.611199	0.215634
266888351	O	0.241776	0.693614	0.334143
266888351	H	0.11511	0.753241	0.282172
266888351	O	0.252747	0.81427	0.198747
266888351	O	0.105989	0.622112	0.23308
266888351	Fe	0.107589	0.753272	0.318141
266888351	O	0.108531	0.6162	0.271097
266888351	H	0.107907	0.82953	0.326113
266888351	C	0.10361	0.678092	0.175563
266888351	C	0.103712	0.811058	0.180726
266888351	C	0.10363	0.814352	0.298456
266888351	O	0.102148	0.649222	0.295667
266888351	H	0.236382	0.614613	0.236776
266888351	C	0.106393	0.81477	0.277571
266888351	O	0.102525	0.680036	0.22333
266888351	C	0.10706	0.674381	0.328738
266888351	C	0.171106	0.771005	0.113414
266888351	H	0.250509	0.837087	0.309744
266888351	Fe	0.175247	0.602528	0.123832
266888351	O	0.205212	0.606521	0.116304
266888351	O	0.230013	0.835471	0.26694
266888351	C	0.152166	0.801091	0.107274
266888351	C	0.153706	0.779945	0.107263
266888351	C	0.254971	0.779107	0.100036
266888351	O	0.11944	0.604994	0.15968
266888351	O	0.255421	0.839169	0.232181
266888351	C	0.135455	0.76769	0.103509
266888351	O	0.147001	0.598442	0.129101
266888351	C	0.16439	0.69867	0.101079
266888351	C	0.103119	0.703839	0.299685
266888351	H	0.105772	0.800055	0.269806
266888351	H	0.172549	0.754572	0.115322
266888351	H	0.139463	0.807861	0.102075
266888351	H	0.179645	0.818374	0.332346
266888351	H	0.101202	0.715969	0.289433
266888351	H	0.157882	0.81714	0.339611
266888351	C	0.256857	0.74247	0.0997399
266888351	C	0.0984621	0.795681	0.310674
266888351	O	0.277361	0.596158	0.24446
266888351	O	0.131305	0.842531	0.200024
266888351	H	0.102087	0.620152	0.315644
266888351	C	0.0998639	0.595702	0.110793
266888351	O	0.0962641	0.655967	0.255068
266888351	C	0.33735	0.594835	0.231887
266888351	O	0.0965358	0.778597	0.303586
266888351	H	0.197283	0.607773	0.152987
266888351	O	0.0961227	0.702571	0.140587
266888351	H	0.208036	0.619999	0.111508
266888351	C	0.260757	0.671807	0.160899
266888351	C	0.0999854	0.604596	0.312791
266888351	O	0.0976631	0.797696	0.328899
266888351	H	0.207814	0.597833	0.104724
266888351	C	0.098041	0.667372	0.210516
266888351	O	0.258844	0.618603	0.189184
266888351	H	0.315268	0.672686	0.341445
266888351	H	0.42399	0.791312	0.334198
266888351	O	0.353039	0.658108	0.233041
266888351	Fe	0.254896	0.844461	0.204354
266888351	Fe	0.310634	0.805746	0.0973711
266888351	H	0.312912	0.769188	0.0962426
266888351	H	0.361161	0.610658	0.302788
266888351	C	0.169356	0.704661	0.343553
266888351	H	0.266719	0.653426	0.1868
266888351	H	0.268828	0.632119	0.243893
266888351	H	0.293888	0.745039	0.146592
266888351	H	0.368952	0.83949	0.34253
266888351	H	0.214186	0.83631	0.0962955
266888351	C	0.150909	0.716074	0.0959204
266888351	O	0.316511	0.70742	0.278899
266888351	O	0.361017	0.842819	0.262924
266888351	H	0.414632	0.608792	0.342525
266888351	H	0.257086	0.685934	0.132456
266888351	O	0.338906	0.790123	0.165616
266888351	C	0.156502	0.679574	0.0989995
266888351	C	0.106275	0.657023	0.342463
266888351	H	0.318176	0.776061	0.118344
266888351	O	0.151951	0.843574	0.110233
266888351	Fe	0.359434	0.818472	0.280866
266888351	H	0.33599	0.749854	0.212023
266888351	O	0.282677	0.672685	0.0984839
266888351	H	0.42637	0.7823	0.313027
266888351	O	0.259945	0.816405	0.106803
266888351	H	0.177861	0.601848	0.162961
266888351	C	0.414499	0.779693	0.23575
266888351	O	0.371593	0.806744	0.188757
266888351	C	0.41982	0.764238	0.202103
266888351	H	0.386367	0.761032	0.273404
266888351	H	0.277008	0.624401	0.1325
266888351	C	0.385437	0.655763	0.261291
266888351	H	0.0978186	0.770594	0.174962
266888351	C	0.395935	0.744599	0.248265
266888351	H	0.278596	0.762377	0.113307
266888351	H	0.364171	0.687776	0.128206
266888351	O	0.095305	0.756965	0.343785
266888351	O	0.133935	0.843886	0.244049
266888351	F	0.336199	0.644302	0.290171
266888351	Fe	0.343561	0.665646	0.276315
266888351	C	0.267149	0.798232	0.105384
266888351	H	0.339764	0.698067	0.343498
266888351	H	0.419885	0.793965	0.230567
266888351	O	0.377559	0.740054	0.169888
266888351	O	0.314944	0.735137	0.0974036
266888351	H	0.255926	0.834396	0.168276
266888351	H	0.401518	0.731738	0.10614
266888351	H	0.290828	0.794806	0.264075
266888351	C	0.402899	0.641682	0.26471
266888351	O	0.291975	0.821913	0.136105
266888351	C	0.386742	0.7318	0.100501
266888351	O	0.361362	0.672599	0.297666
266888351	C	0.265938	0.617143	0.171895
266888351	O	0.284719	0.795733	0.111206
266888351	O	0.287272	0.793236	0.250111
266888351	H	0.339728	0.732166	0.136635
266888351	O	0.327377	0.685586	0.145903
266888351	C	0.361697	0.789421	0.333218
266888351	H	0.345021	0.755212	0.111539
266888351	C	0.304903	0.706463	0.312807
266888351	Fe	0.345822	0.715304	0.272661
266888351	Fe	0.369628	0.785453	0.165301
266888351	O	0.302494	0.70622	0.149692
266888351	H	0.336481	0.790259	0.180676
266888351	O	0.353545	0.706219	0.302041
266888351	C	0.386529	0.816891	0.196212
266888351	C	0.275304	0.709107	0.33201
266888351	O	0.36808	0.650073	0.266021
266888351	C	0.311841	0.833325	0.191818
266888351	O	0.304576	0.657945	0.120765
266888351	H	0.256222	0.640911	0.226557
266888351	O	0.374473	0.807388	0.145588
266888351	O	0.333722	0.83035	0.294991
266888351	H	0.330047	0.724916	0.322063
266888351	O	0.352123	0.688972	0.263104
266888351	H	0.333285	0.77753	0.162092
266888351	H	0.340933	0.754136	0.272069
266888351	Fe	0.266442	0.606486	0.21669
266888351	C	0.294849	0.832287	0.205792
266888351	C	0.331848	0.628114	0.207012
266888351	O	0.386976	0.790072	0.309743
266888351	C	0.324684	0.705714	0.176343
266888351	C	0.329228	0.608518	0.200354
266888351	C	0.362896	0.683173	0.330233
266888351	Fe	0.404095	0.813538	0.309756
266888351	O	0.321658	0.778444	0.103963
266888351	O	0.35618	0.794573	0.298546
266888351	H	0.371218	0.61498	0.250117
266888351	O	0.382047	0.803528	0.26596
266888351	C	0.384691	0.831252	0.121826
266888351	O	0.374336	0.726273	0.268745
266888351	O	0.404273	0.813546	0.191299
266888351	H	0.386393	0.663626	0.322538
266888351	Fe	0.279419	0.839849	0.114768
266888351	C	0.383639	0.834259	0.210698
266888351	C	0.363051	0.74611	0.180067
266888351	C	0.383624	0.72648	0.252535
266888351	O	0.39609	0.778505	0.166235
266888351	F	0.34176	0.807908	0.262305
266888351	C	0.270287	0.637121	0.138422
266888351	Fe	0.309617	0.720076	0.123739
266888351	O	0.32195	0.815294	0.124184
266888351	C	0.332237	0.61364	0.24017
266888351	H	0.35091	0.71365	0.160068
266888351	C	0.324002	0.719867	0.20963
266888351	Fe	0.366181	0.68528	0.238776
266888351	O	0.33731	0.723748	0.243786
266888351	O	0.339726	0.744192	0.283251
266888351	O	0.268456	0.634024	0.229484
266888351	O	0.412418	0.805145	0.280762
266888351	C	0.286778	0.662064	0.114167
266888351	O	0.377324	0.602193	0.254488
266888351	Fe	0.404325	0.750676	0.16317
266888351	C	0.314592	0.697318	0.294526
266888351	C	0.403114	0.625955	0.278074
266888351	C	0.400304	0.79789	0.267189
266888351	O	0.306311	0.747881	0.138937
266888351	C	0.342321	0.798131	0.336851
266888351	Fe	0.270719	0.817307	0.2404
266888351	C	0.270728	0.656608	0.129564
266888351	C	0.267376	0.636232	0.160009
266888351	H	0.316601	0.750399	0.149153
266888351	C	0.27122	0.724712	0.102186
266888351	H	0.367175	0.679704	0.106704
266888351	C	0.398916	0.836455	0.225481
266888351	H	0.407352	0.73192	0.222169
266888351	Fe	0.330926	0.673457	0.117362
266888351	O	0.406709	0.815717	0.146809
266888351	O	0.355291	0.611365	0.289849
266888351	C	0.395966	0.761408	0.26046
266888351	C	0.317697	0.82886	0.157216
266888351	C	0.407064	0.745506	0.231104
266888351	H	0.331576	0.616281	0.256401
266888351	C	0.31041	0.820964	0.138561
266888351	O	0.278662	0.721102	0.119292
266888351	O	0.365798	0.764268	0.141083
266888351	C	0.285392	0.701279	0.316133
266888351	C	0.353966	0.745061	0.103385
266888351	C	0.368553	0.789207	0.312303
266888351	C	0.265947	0.654098	0.170862
266888351	O	0.379901	0.830125	0.300983
266888351	C	0.264605	0.760822	0.105005
266888351	H	0.390832	0.627174	0.289366
266888351	C	0.418696	0.64388	0.251736
266888351	C	0.310224	0.82169	0.174843
266888351	H	0.330915	0.79775	0.326236
266888351	H	0.350216	0.748412	0.292308
266888351	C	0.314809	0.720172	0.326313
266888351	O	0.288189	0.817047	0.214283
266888351	C	0.378793	0.754058	0.129776
266888351	O	0.342194	0.695995	0.224955
266888351	H	0.332428	0.641809	0.197052
266888351	C	0.415101	0.763743	0.223554
266888351	H	0.323531	0.819902	0.293151
266888351	O	0.38876	0.671925	0.252786
266888351	H	0.304261	0.695193	0.199699
266888351	F	0.412281	0.723309	0.16184
266888351	O	0.396405	0.751245	0.135219
266888351	O	0.380496	0.712647	0.239192
266888351	O	0.397308	0.820428	0.339278
266888351	C	0.315868	0.705944	0.195549
266888351	Fe	0.417776	0.796887	0.168501
266888351	O	0.41041	0.751246	0.191992
266888351	O	0.314036	0.695909	0.107549
266888351	H	0.278117	0.781996	0.249334
266888351	C	0.332159	0.630726	0.227749
266888351	C	0.377305	0.668429	0.333982
266888351	C	0.346382	0.733182	0.185893
266888351	C	0.336532	0.65043	0.237889
266888351	O	0.29462	0.610724	0.206797
266888351	C	0.308341	0.601738	0.197033
266888351	O	0.423655	0.837433	0.310355
266888351	H	0.299107	0.809784	0.174722
266888351	C	0.369455	0.824795	0.109168
266888351	C	0.359181	0.688128	0.308609
266888351	O	0.358104	0.688124	0.115545
266888351	C	0.415277	0.609544	0.275884
266888351	C	0.26064	0.672096	0.139983
266888351	C	0.333927	0.712849	0.227798
266888351	H	0.340886	0.608306	0.293218
266888351	O	0.33942	0.719774	0.129283
266888351	O	0.290864	0.835591	0.25327
266888351	H	0.409561	0.824633	0.227503
266888351	C	0.333725	0.736584	0.202317
266888351	O	0.272525	0.600503	0.16591
266888351	O	0.321924	0.679769	0.29349
266888351	C	0.388892	0.818447	0.139779
266888351	H	0.374438	0.685513	0.199888
266888351	H	0.364255	0.810133	0.111623
266888351	F	0.345141	0.652427	0.129034
266888351	H	0.418699	0.656547	0.242119
266888351	C	0.34176	0.717013	0.173145
266888351	O	0.38184	0.680453	0.211697
266888351	C	0.316523	0.696777	0.157069
266888351	C	0.373441	0.744493	0.110721
266888351	C	0.405692	0.779166	0.254783
266888351	O	0.32618	0.65692	0.252764
266888351	H	0.278147	0.692648	0.304845
266888351	H	0.383095	0.666259	0.208892
266888351	O	0.362903	0.763442	0.186103
266888351	H	0.425507	0.769934	0.101398
266888351	O	0.20776	0.720345	0.343619
266888351	O	0.427889	0.794566	0.320518
266888351	O	0.223286	0.761224	0.342778
266888351	Fe	0.209565	0.691093	0.342308
266888351	O	0.182864	0.844328	0.121231
266888351	F	0.210897	0.662009	0.341828
266888351	O	0.169131	0.594694	0.0957242
266888351	F	0.178305	0.687654	0.429699
266888351	O	0.146056	0.607707	0.385807
266888351	O	0.132823	0.650302	0.395472
266888351	O	0.236219	0.605294	0.368515
266888351	C	0.24953	0.612469	0.379423
266888351	O	0.215208	0.740956	0.383349
266888351	O	0.215584	0.688821	0.371451
266888351	Fe	0.230483	0.733623	0.357367
266888351	O	0.242199	0.707006	0.371218
266888351	C	0.234113	0.690033	0.374843
266888351	C	0.159622	0.719774	0.377284
266888351	C	0.147167	0.753187	0.379825
266888351	C	0.154106	0.735786	0.388658
266888351	H	0.141573	0.764682	0.390021
266888351	H	0.164802	0.706365	0.38399
266888351	C	0.170659	0.615007	0.423115
266888351	H	0.171464	0.628259	0.412653
266888351	C	0.23969	0.651343	0.381613
266888351	C	0.24683	0.671929	0.377863
266888351	H	0.223826	0.647825	0.382805
266888351	H	0.144285	0.658871	0.393196
266888351	O	0.157714	0.750156	0.420387
266888351	C	0.15406	0.734518	0.410158
266888351	O	0.152759	0.716027	0.419639
266888351	H	0.156904	0.718232	0.434011
266888351	O	0.242196	0.826735	0.365867
266888351	H	0.216298	0.730115	0.392414
266888351	O	0.168294	0.689569	0.493085
266888351	O	0.162699	0.673453	0.464943
266888351	C	0.156168	0.681841	0.48076
266888351	Fe	0.190116	0.678457	0.45309
266888351	O	0.217645	0.687418	0.442675
266888351	C	0.233476	0.679264	0.447777
266888351	O	0.233912	0.660794	0.450477
266888351	O	0.226354	0.680556	0.513768
266888351	C	0.238783	0.667882	0.50835
266888351	O	0.18789	0.70778	0.464376
266888351	Fe	0.197375	0.684157	0.50323
266888351	O	0.202484	0.668929	0.478029
266888351	Fe	0.222898	0.647684	0.475692
266888351	O	0.189302	0.648948	0.441102
266888351	O	0.205214	0.628819	0.460893
266888351	C	0.193157	0.631272	0.44733
266888351	O	0.212026	0.633878	0.501984
266888351	O	0.191099	0.699708	0.528949
266888351	O	0.2073	0.708979	0.490767
266888351	O	0.186523	0.656996	0.516585
266888351	C	0.19617	0.717759	0.478062
266888351	H	0.179626	0.660795	0.528517
266888351	H	0.202098	0.709414	0.529417
266888351	H	0.179694	0.707878	0.524787
266888351	O	0.230958	0.670967	0.56826
266888351	C	0.245002	0.679703	0.578915
266888351	Fe	0.204274	0.660299	0.581859
266888351	O	0.185735	0.67459	0.561736
266888351	O	0.201	0.636494	0.564335
266888351	H	0.171845	0.674762	0.566561
266888351	H	0.190937	0.687947	0.561312
266888351	F	0.232525	0.746798	0.512846
266888351	C	0.109652	0.68956	0.535727
266888351	O	0.120415	0.681159	0.548735
266888351	Fe	0.110881	0.658214	0.56817
266888351	O	0.136013	0.641709	0.5586
266888351	H	0.130151	0.629668	0.553175
266888351	H	0.141499	0.64981	0.547389
266888351	H	0.238973	0.712916	0.471579
266888351	C	0.176396	0.745245	0.49289
266888351	C	0.192303	0.738895	0.481094
266888351	C	0.204671	0.752442	0.470988
266888351	C	0.172451	0.765606	0.495736
266888351	H	0.167901	0.734033	0.50113
266888351	H	0.216805	0.746558	0.461679
266888351	H	0.248914	0.710317	0.554337
266888351	C	0.22865	0.647079	0.535942
266888351	C	0.242696	0.651019	0.520767
266888351	H	0.21924	0.65968	0.539286
266888351	C	0.182477	0.613572	0.440137
266888351	C	0.131974	0.685448	0.507537
266888351	C	0.13497	0.685329	0.486916
266888351	C	0.119276	0.691037	0.474323
266888351	C	0.115882	0.69533	0.515621
266888351	H	0.141049	0.676093	0.516361
266888351	H	0.120608	0.690631	0.458266
266888351	H	0.209398	0.620008	0.498529
266888351	H	0.175569	0.654288	0.507643
266888351	O	0.150446	0.777843	0.522332
266888351	O	0.14532	0.78533	0.4909
266888351	C	0.154434	0.775235	0.503465
266888351	Fe	0.133221	0.812508	0.491278
266888351	O	0.107917	0.80094	0.50361
266888351	Fe	0.144634	0.803275	0.539041
266888351	O	0.147773	0.819471	0.51526
266888351	O	0.157182	0.82197	0.474678
266888351	O	0.141451	0.786259	0.564556
266888351	O	0.113333	0.801251	0.535903
266888351	O	0.173291	0.802677	0.544597
266888351	C	0.184506	0.816333	0.549487
266888351	H	0.126941	0.785025	0.568013
266888351	F	0.121167	0.807098	0.467703
266888351	O	0.248017	0.779695	0.492108
266888351	C	0.201536	0.808522	0.56202
266888351	C	0.235225	0.79728	0.559772
266888351	C	0.22141	0.811365	0.554547
266888351	C	0.184931	0.779291	0.486811
266888351	C	0.199822	0.773039	0.47312
266888351	H	0.182056	0.794989	0.487195
266888351	O	0.211478	0.80513	0.46375
266888351	C	0.209726	0.78695	0.459355
266888351	O	0.216113	0.779692	0.441761
266888351	H	0.221596	0.791715	0.434609
266888351	H	0.22297	0.752323	0.389792
266888351	O	0.254754	0.74869	0.371314
266888351	O	0.249822	0.77471	0.538677
266888351	C	0.103122	0.700514	0.482488
266888351	C	0.102296	0.797685	0.521509
266888351	C	0.102654	0.704081	0.502746
266888351	O	0.242829	0.665571	0.490364
266888351	Fe	0.256897	0.760035	0.513382
266888351	H	0.250841	0.810377	0.446287
266888351	C	0.249937	0.792853	0.543805
266888351	C	0.141694	0.601829	0.403428
266888351	O	0.122364	0.781554	0.360386
266888351	C	0.226945	0.628104	0.543553
266888351	H	0.147756	0.794603	0.575157
266888351	C	0.215168	0.625351	0.560661
266888351	H	0.150267	0.8247	0.461607
266888351	C	0.156472	0.600519	0.420074
266888351	O	0.142696	0.829684	0.556905
266888351	Fe	0.130441	0.630478	0.370679
266888351	C	0.232772	0.783688	0.575884
266888351	O	0.186512	0.829823	0.497411
266888351	H	0.22422	0.819405	0.541017
266888351	C	0.198905	0.796669	0.579488
266888351	O	0.245244	0.62636	0.473067
266888351	O	0.182813	0.833966	0.541486
266888351	H	0.184372	0.797058	0.58798
266888351	H	0.118878	0.721923	0.368287
266888351	H	0.197194	0.828744	0.506806
266888351	C	0.214486	0.783698	0.587042
266888351	H	0.243839	0.77245	0.578034
266888351	C	0.249664	0.615557	0.519366
266888351	C	0.237437	0.612559	0.535099
266888351	O	0.158434	0.638165	0.360943
266888351	O	0.110863	0.715412	0.358688
266888351	C	0.255081	0.635601	0.514468
266888351	O	0.21951	0.611559	0.573334
266888351	C	0.252606	0.690085	0.452222
266888351	H	0.238749	0.616274	0.464475
266888351	O	0.121352	0.839957	0.489696
266888351	H	0.106822	0.701842	0.363053
266888351	O	0.103997	0.634773	0.585493
266888351	C	0.253729	0.634387	0.380623
266888351	C	0.252904	0.706689	0.466508
266888351	C	0.159921	0.720005	0.356013
266888351	O	0.102811	0.621039	0.377149
266888351	H	0.192702	0.7424	0.357766
266888351	O	0.121571	0.654827	0.354013
266888351	C	0.146264	0.7549	0.359037
266888351	Fe	0.165118	0.842938	0.51699
266888351	O	0.180003	0.690481	0.35093
266888351	C	0.249035	0.820583	0.349356
266888351	H	0.217406	0.798008	0.348164
266888351	O	0.257038	0.824501	0.409565
266888351	H	0.250713	0.762635	0.373502
266888351	O	0.0998753	0.746155	0.385261
266888351	H	0.190989	0.84025	0.488249
266888351	O	0.123456	0.598802	0.406868
266888351	H	0.139084	0.621638	0.590152
266888351	O	0.128194	0.671586	0.590349
266888351	O	0.200646	0.731271	0.350974
266888351	H	0.167962	0.634468	0.37165
266888351	H	0.234564	0.596875	0.538325
266888351	H	0.102095	0.644109	0.535383
266888351	H	0.290304	0.773046	0.373835
266888351	H	0.163888	0.834387	0.416585
266888351	C	0.117274	0.595742	0.345612
266888351	C	0.427591	0.704564	0.573085
266888351	O	0.303622	0.675971	0.349651
266888351	O	0.427761	0.600564	0.51614
266888351	O	0.303964	0.814708	0.349335
266888351	C	0.182368	0.595699	0.453487
266888351	C	0.259893	0.789547	0.48082
266888351	H	0.255054	0.633001	0.464684
266888351	O	0.258469	0.806177	0.53244
266888351	C	0.258936	0.796347	0.443559
266888351	O	0.414843	0.673834	0.347869
266888351	H	0.25875	0.742818	0.384491
266888351	C	0.262233	0.806348	0.406865
266888351	C	0.095177	0.762675	0.392555
266888351	H	0.389656	0.781607	0.345617
266888351	C	0.134111	0.770876	0.349914
266888351	C	0.285406	0.720672	0.346129
266888351	O	0.2666	0.813624	0.348175
266888351	C	0.0961076	0.786131	0.421137
266888351	C	0.0978613	0.766599	0.413982
266888351	C	0.263044	0.70558	0.558619
266888351	C	0.274574	0.773777	0.420499
266888351	H	0.351664	0.606157	0.480432
266888351	O	0.288574	0.779943	0.361169
266888351	C	0.342537	0.608513	0.510559
266888351	C	0.0950527	0.751045	0.42693
266888351	O	0.427855	0.840253	0.49219
266888351	O	0.427056	0.626287	0.483116
266888351	O	0.272817	0.601849	0.496465
266888351	C	0.263842	0.783463	0.459582
266888351	H	0.301406	0.779045	0.354563
266888351	C	0.264292	0.687784	0.569712
266888351	O	0.260699	0.74315	0.490243
266888351	O	0.264833	0.738242	0.532376
266888351	Fe	0.0998324	0.595316	0.387928
266888351	C	0.375466	0.787828	0.349389
266888351	C	0.338352	0.808663	0.35402
266888351	H	0.0968485	0.797868	0.410537
266888351	C	0.25816	0.599263	0.507798
266888351	H	0.28334	0.759815	0.468414
266888351	H	0.401582	0.64255	0.532479
266888351	O	0.362835	0.709292	0.436377
266888351	H	0.415467	0.59883	0.507344
266888351	H	0.314112	0.843751	0.401623
266888351	C	0.345604	0.695982	0.379005
266888351	O	0.403723	0.789179	0.382152
266888351	O	0.264292	0.799582	0.389233
266888351	Fe	0.362668	0.690564	0.564887
266888351	C	0.385408	0.76515	0.585028
266888351	C	0.279985	0.602825	0.579372
266888351	C	0.270398	0.683991	0.443618
266888351	C	0.376878	0.716738	0.426704
266888351	Fe	0.415986	0.621894	0.456936
266888351	C	0.336684	0.815112	0.539498
266888351	O	0.363992	0.629642	0.594346
266888351	C	0.372284	0.787556	0.456411
266888351	C	0.318388	0.788221	0.484889
266888351	C	0.354187	0.783884	0.443952
266888351	C	0.275151	0.73089	0.487818
266888351	Fe	0.286	0.809393	0.370039
266888351	C	0.380792	0.634647	0.480812
266888351	H	0.284762	0.627191	0.378979
266888351	O	0.367775	0.670711	0.585427
266888351	C	0.37222	0.793813	0.477126
266888351	Fe	0.345944	0.654334	0.592226
266888351	C	0.335839	0.793854	0.473879
266888351	O	0.309381	0.643317	0.357328
266888351	C	0.353177	0.614694	0.49417
266888351	H	0.35037	0.816658	0.382409
266888351	O	0.291729	0.73406	0.497301
266888351	O	0.357747	0.709626	0.38405
266888351	O	0.421361	0.794279	0.530011
266888351	O	0.296104	0.744333	0.539794
266888351	O	0.282068	0.773913	0.514487
266888351	H	0.267331	0.604596	0.570523
266888351	O	0.342946	0.646751	0.56121
266888351	O	0.302383	0.80279	0.538132
266888351	H	0.332429	0.614786	0.540847
266888351	O	0.322406	0.698671	0.442932
266888351	H	0.422968	0.598272	0.398311
266888351	O	0.389894	0.650472	0.483063
266888351	H	0.404157	0.74225	0.496526
266888351	Fe	0.423767	0.798246	0.559015
266888351	O	0.26935	0.803811	0.487218
266888351	C	0.396597	0.707469	0.427747
266888351	C	0.419157	0.668321	0.45885
266888351	C	0.300415	0.691373	0.572236
266888351	Fe	0.351914	0.737173	0.394562
266888351	H	0.383471	0.741276	0.376486
266888351	O	0.331967	0.724863	0.410926
266888351	C	0.383342	0.664005	0.353037
266888351	H	0.356256	0.725436	0.470114
266888351	H	0.279337	0.836885	0.50199
266888351	O	0.387995	0.620443	0.470721
266888351	H	0.311754	0.791064	0.392863
266888351	O	0.404294	0.74023	0.511043
266888351	H	0.271309	0.672463	0.433072
266888351	C	0.342554	0.619493	0.527946
266888351	C	0.320261	0.79869	0.535515
266888351	C	0.320746	0.821444	0.354629
266888351	H	0.352249	0.799833	0.500809
266888351	C	0.280311	0.734205	0.541412
266888351	H	0.285205	0.667008	0.586
266888351	O	0.374203	0.732059	0.415413
266888351	H	0.302779	0.715562	0.467395
266888351	O	0.404364	0.618259	0.428702
266888351	O	0.411317	0.644384	0.361907
266888351	H	0.39275	0.627374	0.430089
266888351	F	0.40728	0.675413	0.511279
266888351	Fe	0.337078	0.724849	0.439743
266888351	H	0.383948	0.736742	0.57156
266888351	C	0.370527	0.797314	0.367408
266888351	H	0.363215	0.797275	0.543438
266888351	C	0.372479	0.671965	0.368632
266888351	H	0.265581	0.638474	0.50269
266888351	Fe	0.284421	0.802546	0.513869
266888351	C	0.298421	0.708143	0.561751
266888351	C	0.381564	0.745479	0.584432
266888351	C	0.408888	0.691943	0.570164
266888351	C	0.39335	0.825758	0.540605
266888351	H	0.422783	0.613284	0.586045
266888351	O	0.364581	0.667519	0.545304
266888351	C	0.354807	0.68274	0.36461
266888351	C	0.384617	0.795979	0.385013
266888351	H	0.269524	0.687323	0.363324
266888351	O	0.326479	0.696243	0.381702
266888351	H	0.338163	0.743278	0.525167
266888351	C	0.289463	0.708016	0.464268
266888351	H	0.378184	0.670042	0.384212
266888351	C	0.371131	0.828662	0.543141
266888351	C	0.400367	0.695686	0.444572
266888351	H	0.312506	0.642449	0.584956
266888351	O	0.304313	0.690825	0.417344
266888351	C	0.298197	0.658455	0.359052
266888351	C	0.392712	0.772872	0.56477
266888351	O	0.305232	0.735602	0.379816
266888351	H	0.371627	0.657446	0.511813
266888351	O	0.411198	0.652289	0.452337
266888351	O	0.282373	0.837055	0.37881
266888351	H	0.38689	0.7821	0.451289
266888351	C	0.352403	0.766394	0.430617
266888351	O	0.28693	0.833573	0.513661
266888351	H	0.3892	0.694652	0.456003
266888351	C	0.266811	0.673222	0.371419
266888351	O	0.26212	0.600493	0.387809
266888351	F	0.357088	0.709804	0.54517
266888351	C	0.276814	0.767158	0.456271
266888351	O	0.332692	0.687071	0.562483
266888351	H	0.325453	0.726473	0.513897
266888351	O	0.372277	0.750753	0.376443
266888351	C	0.28071	0.716138	0.554663
266888351	C	0.272063	0.714263	0.473297
266888351	O	0.405456	0.824008	0.555404
266888351	C	0.264517	0.792104	0.423274
266888351	O	0.306738	0.805384	0.393658
266888351	O	0.324329	0.780282	0.52951
266888351	H	0.278356	0.769436	0.405299
266888351	C	0.320543	0.683856	0.575914
266888351	O	0.4037	0.80529	0.490786
266888351	C	0.288249	0.693812	0.448905
266888351	H	0.321516	0.786633	0.446167
266888351	C	0.353397	0.651714	0.545551
266888351	C	0.410049	0.707643	0.411919
266888351	O	0.311734	0.742142	0.442185
266888351	H	0.399391	0.604841	0.431056
266888351	C	0.295717	0.744424	0.431632
266888351	C	0.419084	0.685956	0.446931
266888351	O	0.397157	0.790515	0.564516
266888351	C	0.336335	0.788849	0.453122
266888351	C	0.364341	0.631967	0.494168
266888351	C	0.352799	0.638296	0.528138
266888351	O	0.392147	0.699518	0.562884
266888351	O	0.379662	0.799889	0.403147
266888351	C	0.273627	0.638798	0.378343
266888351	C	0.315949	0.734886	0.3647
266888351	H	0.366188	0.748221	0.363483
266888351	O	0.314057	0.76926	0.487223
266888351	O	0.388398	0.78044	0.506575
266888351	Fe	0.307526	0.713744	0.399747
266888351	C	0.404382	0.659826	0.354861
266888351	Fe	0.305792	0.75783	0.513589
266888351	C	0.281876	0.762143	0.436537
266888351	O	0.325931	0.676882	0.591879
266888351	O	0.357455	0.710337	0.585628
266888351	F	0.284851	0.70416	0.389083
266888351	H	0.405166	0.713638	0.39746
266888351	O	0.310268	0.801496	0.495447
266888351	C	0.389165	0.793284	0.492159
266888351	O	0.330753	0.740766	0.512865
266888351	H	0.29941	0.839058	0.509674
266888351	O	0.408155	0.675728	0.578418
266888351	H	0.39041	0.736247	0.515374
266888351	O	0.348339	0.765743	0.411061
266888351	C	0.353444	0.797221	0.4847
266888351	H	0.27614	0.72317	0.358633
266888351	C	0.282623	0.681439	0.577839
266888351	H	0.311618	0.716564	0.558585
266888351	H	0.336468	0.73682	0.475319
266888351	O	0.341512	0.724628	0.469431
266888351	O	0.403779	0.634293	0.520347
266888351	H	0.410506	0.788262	0.395331
266888351	O	0.35239	0.751119	0.440212
266888351	O	0.397857	0.762263	0.548914
266888351	H	0.313325	0.839544	0.539805
266888351	C	0.306101	0.692493	0.43556
266888351	O	0.290721	0.733013	0.417141
266888351	Fe	0.416905	0.651614	0.497211
266888351	O	0.333534	0.738764	0.36791
266888351	C	0.329011	0.835169	0.540279
266888351	Fe	0.424259	0.816549	0.511216
266888351	H	0.413526	0.729255	0.559088
266888351	Fe	0.413586	0.768636	0.520903
266888351	C	0.306379	0.725054	0.34562
266888351	C	0.35774	0.81205	0.541619
266888351	C	0.353306	0.80998	0.368547
266888351	O	0.399563	0.828558	0.523051
266888351	C	0.279369	0.657163	0.370231
266888351	C	0.363469	0.643831	0.510505
266888351	F	0.290993	0.595301	0.461934
266888351	O	0.310644	0.598593	0.498388
266888351	H	0.406199	0.811341	0.346349
266888351	H	0.161888	0.628202	0.349669
266888351	C	0.154812	0.739119	0.34717
266888351	F	0.42783	0.803285	0.586062
266888351	O	0.12453	0.612869	0.346102
266888351	O	0.321638	0.839205	0.359461
266888351	C	0.351089	0.688183	0.345485
266888351	C	0.427054	0.723198	0.565228
266888351	O	0.134791	0.844286	0.34989
266888351	H	0.381412	0.595598	0.570328
266888351	H	0.309947	0.596904	0.367783
266888351	O	0.166869	0.740315	0.750147
266888351	O	0.156521	0.68703	0.754287
266888351	O	0.137633	0.713564	0.739644
266888351	H	0.14415	0.718414	0.727117
266888351	O	0.130663	0.755261	0.739041
266888351	H	0.116728	0.751596	0.736688
266888351	H	0.130033	0.768597	0.746189
266888351	Fe	0.236915	0.659232	0.617131
266888351	O	0.23564	0.639033	0.639556
266888351	O	0.21032	0.674476	0.626778
266888351	C	0.199736	0.684659	0.614696
266888351	O	0.138953	0.646513	0.681322
266888351	C	0.135868	0.632349	0.669256
266888351	O	0.163673	0.648241	0.738217
266888351	O	0.187515	0.62613	0.73921
266888351	C	0.181229	0.643435	0.741748
266888351	O	0.177779	0.627318	0.674372
266888351	Fe	0.150863	0.64426	0.710944
266888351	O	0.159477	0.616389	0.710206
266888351	O	0.143499	0.613735	0.747013
266888351	O	0.142323	0.67354	0.712788
266888351	O	0.176381	0.652337	0.697676
266888351	O	0.127155	0.635027	0.727368
266888351	C	0.183135	0.644746	0.681419
266888351	C	0.12889	0.624652	0.743328
266888351	H	0.154458	0.680991	0.713536
266888351	H	0.136543	0.675212	0.726586
266888351	O	0.2491	0.65192	0.707197
266888351	O	0.246698	0.619405	0.737318
266888351	C	0.24659	0.674004	0.744312
266888351	H	0.240359	0.612735	0.72527
266888351	H	0.23674	0.629007	0.742601
266888351	Fe	0.17903	0.741274	0.669876
266888351	O	0.190163	0.718313	0.654064
266888351	C	0.207678	0.712623	0.654988
266888351	O	0.221937	0.725369	0.652772
266888351	O	0.221387	0.76126	0.618453
266888351	O	0.155168	0.7435	0.65258
266888351	O	0.193781	0.759486	0.65394
266888351	Fe	0.221772	0.758004	0.65117
266888351	O	0.202004	0.737188	0.689911
266888351	O	0.226173	0.758523	0.682615
266888351	C	0.216367	0.748081	0.695534
266888351	O	0.16375	0.760318	0.626108
266888351	C	0.158946	0.744243	0.634382
266888351	F	0.164515	0.722716	0.684663
266888351	C	0.225285	0.675379	0.750805
266888351	C	0.196007	0.656062	0.751314
266888351	C	0.213159	0.662365	0.741858
266888351	H	0.217236	0.655883	0.728404
266888351	C	0.178812	0.715173	0.617567
266888351	C	0.160172	0.725115	0.6225
266888351	C	0.142475	0.714604	0.617955
266888351	C	0.180176	0.694657	0.618465
266888351	H	0.193268	0.723312	0.617375
266888351	C	0.218017	0.652573	0.680233
266888351	C	0.195712	0.676912	0.66585
266888351	C	0.233506	0.666249	0.678096
266888351	C	0.211404	0.690932	0.662554
266888351	C	0.230311	0.684764	0.667869
266888351	C	0.199525	0.65733	0.672832
266888351	H	0.180703	0.681887	0.662728
266888351	H	0.220005	0.639304	0.688837
266888351	C	0.153643	0.635674	0.636445
266888351	C	0.11938	0.626005	0.615115
266888351	C	0.135837	0.633745	0.646364
266888351	C	0.118895	0.62742	0.635601
266888351	C	0.1114	0.624183	0.757188
266888351	C	0.219011	0.749698	0.758706
266888351	C	0.236096	0.754297	0.727817
266888351	C	0.200826	0.747637	0.749485
266888351	C	0.218857	0.749087	0.717663
266888351	C	0.201837	0.743925	0.728485
266888351	C	0.23481	0.75822	0.748508
266888351	H	0.248581	0.759122	0.719067
266888351	H	0.189254	0.73645	0.721091
266888351	H	0.167442	0.696494	0.752026
266888351	H	0.123115	0.711136	0.736632
266888351	Fe	0.236128	0.808341	0.727018
266888351	O	0.251971	0.789529	0.744616
266888351	C	0.241304	0.778509	0.755948
266888351	O	0.208813	0.795826	0.735541
266888351	C	0.194982	0.806898	0.742449
266888351	O	0.136024	0.830701	0.648065
266888351	O	0.158571	0.784128	0.665209
266888351	O	0.16918	0.762708	0.687842
266888351	C	0.162485	0.780167	0.683432
266888351	O	0.196596	0.783696	0.61755
266888351	C	0.211097	0.774808	0.608815
266888351	Fe	0.178506	0.781689	0.642283
266888351	O	0.225489	0.789169	0.651442
266888351	O	0.161446	0.804474	0.627796
266888351	O	0.195616	0.801628	0.656149
266888351	C	0.214178	0.803756	0.654391
266888351	H	0.152801	0.798587	0.61781
266888351	H	0.170906	0.813633	0.621523
266888351	C	0.172988	0.794736	0.716336
266888351	C	0.162308	0.79674	0.698753
266888351	C	0.155233	0.815867	0.694667
266888351	C	0.177203	0.810417	0.728686
266888351	H	0.179897	0.780097	0.719902
266888351	H	0.144448	0.816345	0.68363
266888351	C	0.221066	0.825001	0.65672
266888351	H	0.243335	0.817135	0.6789
266888351	O	0.13165	0.697052	0.808004
266888351	O	0.159124	0.710398	0.822928
266888351	C	0.142664	0.700404	0.823392
266888351	Fe	0.169245	0.729393	0.800322
266888351	O	0.17983	0.747959	0.778356
266888351	C	0.181961	0.744798	0.760015
266888351	O	0.192262	0.710793	0.791077
266888351	Fe	0.144046	0.692125	0.782021
266888351	O	0.150251	0.719517	0.780996
266888351	Fe	0.13987	0.736321	0.760717
266888351	O	0.149126	0.749399	0.809012
266888351	O	0.140515	0.760754	0.779439
266888351	C	0.140241	0.761892	0.798011
266888351	O	0.136883	0.661346	0.78264
266888351	O	0.171403	0.686092	0.795841
266888351	C	0.188734	0.692351	0.790047
266888351	F	0.18732	0.739294	0.817745
266888351	F	0.20595	0.67312	0.82441
266888351	C	0.218616	0.685622	0.767878
266888351	C	0.190453	0.663349	0.769131
266888351	C	0.200553	0.679903	0.777216
266888351	H	0.177606	0.657936	0.776347
266888351	H	0.227362	0.69779	0.774149
266888351	H	0.218424	0.752202	0.77442
266888351	O	0.229472	0.786631	0.768089
266888351	C	0.128952	0.776078	0.808645
266888351	F	0.23695	0.790589	0.706044
266888351	H	0.128745	0.722557	0.619014
266888351	C	0.158465	0.833131	0.706711
266888351	H	0.127198	0.824595	0.657899
266888351	C	0.143456	0.694632	0.612024
266888351	H	0.125651	0.607423	0.780351
266888351	Fe	0.169857	0.602976	0.733653
266888351	C	0.155515	0.629968	0.616019
266888351	H	0.241745	0.696683	0.667089
266888351	H	0.168117	0.639453	0.643512
266888351	H	0.130442	0.798225	0.785974
266888351	C	0.227136	0.623295	0.643529
266888351	O	0.112307	0.731142	0.770779
266888351	C	0.234123	0.829093	0.672344
266888351	F	0.254303	0.671965	0.635288
266888351	O	0.116579	0.697619	0.76958
266888351	C	0.124229	0.794298	0.799629
266888351	O	0.210832	0.806564	0.800303
266888351	O	0.108017	0.690005	0.610155
266888351	H	0.123991	0.660763	0.790343
266888351	H	0.131646	0.659265	0.768144
266888351	C	0.170275	0.830345	0.724432
266888351	O	0.196803	0.815337	0.759633
266888351	H	0.196601	0.807184	0.800673
266888351	O	0.221258	0.827216	0.710632
266888351	Fe	0.22324	0.815659	0.773825
266888351	H	0.215199	0.816928	0.809645
266888351	C	0.250609	0.663629	0.691703
266888351	C	0.105108	0.71331	0.769953
266888351	O	0.251224	0.819593	0.786146
266888351	C	0.105156	0.826007	0.799137
266888351	O	0.234741	0.82549	0.749018
266888351	C	0.249586	0.607599	0.668942
266888351	O	0.133343	0.616302	0.676777
266888351	C	0.111836	0.614335	0.775526
266888351	C	0.230781	0.612362	0.662121
266888351	O	0.214284	0.615761	0.632133
266888351	H	0.113215	0.672979	0.829025
266888351	Fe	0.158659	0.603758	0.684912
266888351	C	0.138112	0.624952	0.605877
266888351	H	0.104563	0.627894	0.643447
266888351	O	0.114572	0.606905	0.816797
266888351	O	0.252903	0.684629	0.729437
266888351	H	0.212797	0.615881	0.825889
266888351	C	0.174694	0.632409	0.604509
266888351	O	0.252137	0.756269	0.646935
266888351	C	0.214819	0.603468	0.671068
266888351	Fe	0.216531	0.615686	0.602898
266888351	H	0.125897	0.832622	0.63787
266888351	O	0.185481	0.61734	0.603281
266888351	O	0.220494	0.644542	0.600626
266888351	C	0.120161	0.770872	0.826706
266888351	O	0.245694	0.610918	0.603516
266888351	H	0.125076	0.75586	0.834005
266888351	C	0.104301	0.636035	0.604452
266888351	C	0.161977	0.684706	0.616046
266888351	C	0.125985	0.684585	0.604337
266888351	O	0.101176	0.640171	0.698212
266888351	C	0.106638	0.784215	0.835889
266888351	H	0.200575	0.60427	0.66388
266888351	C	0.213993	0.60507	0.837931
266888351	C	0.111673	0.808031	0.80949
266888351	H	0.197356	0.835604	0.638074
266888351	H	0.105819	0.608193	0.712716
266888351	H	0.229235	0.603347	0.777334
266888351	C	0.0971142	0.607138	0.809331
266888351	H	0.161858	0.668812	0.619002
266888351	C	0.10359	0.802976	0.827629
266888351	H	0.101437	0.814839	0.720425
266888351	C	0.101072	0.828077	0.709468
266888351	F	0.150801	0.598519	0.831391
266888351	C	0.20898	0.839663	0.648546
266888351	Fe	0.126762	0.596758	0.843636
266888351	O	0.262057	0.818599	0.717843
266888351	C	0.30944	0.83669	0.712097
266888351	O	0.243241	0.600054	0.778934
266888351	C	0.370164	0.714684	0.59906
266888351	H	0.42673	0.707312	0.641579
266888351	H	0.176465	0.841971	0.733306
266888351	O	0.179431	0.649683	0.597243
266888351	H	0.397341	0.713314	0.843203
266888351	O	0.242722	0.681213	0.597759
266888351	C	0.26004	0.835954	0.781807
266888351	O	0.110183	0.841887	0.747663
266888351	H	0.424299	0.642938	0.812715
266888351	O	0.320894	0.637548	0.59573
266888351	H	0.257305	0.749767	0.659001
266888351	O	0.394359	0.641703	0.601943
266888351	H	0.30016	0.595805	0.763852
266888351	C	0.0958377	0.61439	0.788555
266888351	F	0.322092	0.843246	0.622323
266888351	C	0.122916	0.674128	0.841759
266888351	H	0.418147	0.5946	0.763209
266888351	O	0.0962451	0.824486	0.782839
266888351	O	0.241544	0.683515	0.843433
266888351	O	0.204579	0.685376	0.596713
266888351	C	0.383118	0.627097	0.597526
266888351	O	0.42779	0.769154	0.70482
266888351	O	0.25617	0.658832	0.749962
266888351	C	0.331815	0.597068	0.616335
266888351	O	0.393672	0.607411	0.842033
266888351	C	0.312321	0.600569	0.772604
266888351	O	0.107684	0.841947	0.80823
266888351	H	0.276325	0.722142	0.696558
266888351	H	0.314847	0.723762	0.766935
266888351	C	0.276306	0.690422	0.844356
266888351	H	0.314703	0.645022	0.607075
266888351	C	0.329144	0.728235	0.720601
266888351	C	0.357678	0.669279	0.656281
266888351	C	0.302768	0.711287	0.833013
266888351	O	0.282399	0.601106	0.836041
266888351	C	0.335217	0.752901	0.777693
266888351	H	0.257749	0.769992	0.648792
266888351	O	0.288614	0.628041	0.750646
266888351	C	0.425848	0.787471	0.699574
266888351	C	0.280406	0.611659	0.59738
266888351	C	0.313572	0.598549	0.602593
266888351	C	0.390022	0.605281	0.599582
266888351	O	0.270443	0.842343	0.73918
266888351	C	0.313029	0.826509	0.792033
266888351	H	0.40835	0.604689	0.842094
266888351	C	0.421821	0.780275	0.758832
266888351	C	0.300097	0.802878	0.716448
266888351	O	0.260837	0.640808	0.605975
266888351	C	0.261481	0.621433	0.603899
266888351	C	0.334285	0.681822	0.679734
266888351	C	0.381707	0.77982	0.80879
266888351	C	0.323499	0.728268	0.754643
266888351	C	0.308921	0.797733	0.698586
266888351	C	0.384332	0.706812	0.689818
266888351	C	0.418006	0.830946	0.835846
266888351	C	0.335722	0.626935	0.780815
266888351	H	0.262645	0.610883	0.659152
266888351	O	0.414995	0.676466	0.620767
266888351	O	0.35617	0.737769	0.690201
266888351	H	0.410414	0.680477	0.633847
266888351	F	0.343483	0.650993	0.723257
266888351	O	0.383576	0.783244	0.655911
266888351	C	0.342478	0.755322	0.739327
266888351	C	0.416903	0.786272	0.794409
266888351	O	0.311721	0.773097	0.671169
266888351	O	0.387962	0.78322	0.72169
266888351	O	0.303969	0.690548	0.696365
266888351	O	0.421535	0.736389	0.674881
266888351	C	0.357321	0.620811	0.809901
266888351	H	0.170044	0.596092	0.77083
266888351	H	0.415268	0.622933	0.806955
266888351	H	0.256067	0.71163	0.696397
266888351	O	0.280568	0.606994	0.794219
266888351	H	0.307915	0.758736	0.669317
266888351	C	0.334867	0.745763	0.756715
266888351	O	0.374771	0.628365	0.810156
266888351	H	0.349546	0.714311	0.657273
266888351	O	0.346019	0.659135	0.622556
266888351	O	0.37242	0.812407	0.689611
266888351	Fe	0.409488	0.742591	0.702833
266888351	O	0.31857	0.753722	0.786662
266888351	H	0.272392	0.773789	0.808489
266888351	H	0.421161	0.789779	0.809661
266888351	O	0.33426	0.81404	0.816374
266888351	O	0.299367	0.764398	0.702212
266888351	O	0.353916	0.770575	0.695672
266888351	C	0.40618	0.709055	0.830023
266888351	H	0.269886	0.616723	0.798383
266888351	C	0.376071	0.765726	0.621575
266888351	C	0.401571	0.776672	0.755459
266888351	O	0.351308	0.752647	0.787858
266888351	C	0.39552	0.770349	0.734216
266888351	O	0.336826	0.770956	0.821407
266888351	H	0.38819	0.601506	0.830226
266888351	C	0.292917	0.822699	0.788249
266888351	Fe	0.392208	0.636096	0.834605
266888351	H	0.331313	0.697934	0.83515
266888351	C	0.322238	0.718905	0.737805
266888351	C	0.296643	0.608403	0.609906
266888351	C	0.359801	0.665175	0.634067
266888351	H	0.368392	0.712112	0.64229
266888351	H	0.326017	0.8083	0.673546
266888351	O	0.28772	0.660358	0.723193
266888351	O	0.390784	0.756258	0.687371
266888351	O	0.315549	0.659537	0.695091
266888351	C	0.275324	0.828633	0.727039
266888351	O	0.346152	0.61921	0.824772
266888351	O	0.281231	0.622466	0.708866
266888351	C	0.350359	0.752118	0.700877
266888351	H	0.278969	0.757251	0.793037
266888351	H	0.420277	0.689205	0.615159
266888351	H	0.3277	0.664904	0.652562
266888351	H	0.346666	0.697267	0.705371
266888351	H	0.397661	0.611078	0.630535
266888351	Fe	0.316092	0.654332	0.723607
266888351	O	0.31314	0.623589	0.718729
266888351	C	0.296224	0.822763	0.72146
266888351	C	0.323524	0.810885	0.801357
266888351	C	0.416319	0.738575	0.656445
266888351	C	0.372693	0.772202	0.644805
266888351	H	0.359253	0.710182	0.813694
266888351	Fe	0.278287	0.686519	0.713306
266888351	C	0.305361	0.633475	0.757935
266888351	O	0.313355	0.649363	0.752431
266888351	O	0.331368	0.605861	0.632751
266888351	O	0.319213	0.793814	0.794912
266888351	H	0.394932	0.821395	0.824608
266888351	H	0.351907	0.768404	0.740727
266888351	C	0.318317	0.620018	0.769907
266888351	H	0.272395	0.720251	0.83373
266888351	C	0.31969	0.812028	0.68815
266888351	H	0.389336	0.790733	0.606156
266888351	H	0.291413	0.614068	0.801314
266888351	O	0.371992	0.793893	0.815887
266888351	O	0.389513	0.715643	0.705897
266888351	O	0.302023	0.746094	0.826588
266888351	Fe	0.38287	0.782752	0.689396
266888351	O	0.390045	0.715127	0.675219
266888351	C	0.373857	0.677676	0.667327
266888351	O	0.375558	0.670808	0.627155
266888351	O	0.411366	0.793736	0.689262
266888351	C	0.395838	0.78348	0.791174
266888351	C	0.411692	0.688537	0.800446
266888351	C	0.338651	0.672549	0.662657
266888351	O	0.328948	0.729099	0.817619
266888351	Fe	0.375798	0.739804	0.66806
266888351	C	0.297995	0.614061	0.712358
266888351	C	0.367369	0.747389	0.617722
266888351	O	0.383693	0.703485	0.604776
266888351	H	0.373681	0.782077	0.767512
266888351	Fe	0.390001	0.672926	0.602503
266888351	C	0.316873	0.677635	0.690173
266888351	C	0.347529	0.613298	0.792066
266888351	C	0.349734	0.691045	0.691027
266888351	O	0.400085	0.752451	0.729431
266888351	C	0.383682	0.775724	0.604693
266888351	C	0.281845	0.837721	0.780966
266888351	H	0.388979	0.676855	0.662021
266888351	C	0.307751	0.777296	0.690807
266888351	O	0.26776	0.714127	0.705635
266888351	O	0.37213	0.683289	0.83722
266888351	C	0.385982	0.679794	0.825248
266888351	H	0.324399	0.721751	0.706804
266888351	H	0.382143	0.820588	0.697165
266888351	O	0.359473	0.722028	0.6498
266888351	H	0.40544	0.677291	0.790218
266888351	O	0.398523	0.742023	0.649576
266888351	Fe	0.347158	0.793095	0.83621
266888351	O	0.265302	0.67454	0.689386
266888351	C	0.318607	0.831678	0.693679
266888351	C	0.373243	0.736215	0.600695
266888351	C	0.316122	0.6959	0.838402
266888351	C	0.34033	0.745797	0.720586
266888351	H	0.286021	0.809199	0.793819
266888351	H	0.375221	0.724164	0.801704
266888351	O	0.360761	0.7625	0.655023
266888351	C	0.311611	0.729707	0.825169
266888351	C	0.388531	0.780611	0.771208
266888351	C	0.394696	0.599553	0.619159
266888351	C	0.282583	0.708939	0.837365
266888351	O	0.369246	0.721435	0.815237
266888351	O	0.320824	0.684814	0.730853
266888351	O	0.29217	0.699874	0.737044
266888351	Fe	0.310191	0.770198	0.810748
266888351	O	0.298374	0.788527	0.832782
266888351	C	0.399358	0.695182	0.816575
266888351	O	0.394041	0.662505	0.823379
266888351	Fe	0.35272	0.747555	0.818363
266888351	O	0.378937	0.763225	0.816717
266888351	Fe	0.268909	0.641019	0.729317
266888351	H	0.339036	0.643156	0.78139
266888351	H	0.295718	0.614845	0.625096
266888351	H	0.292793	0.791742	0.724654
266888351	O	0.407656	0.825415	0.81972
266888351	H	0.420509	0.821526	0.723405
266888351	H	0.372128	0.816781	0.675476
266888351	O	0.41884	0.631357	0.818565
266888351	O	0.282499	0.770599	0.797734
266888351	C	0.311242	0.699841	0.736547
266888351	H	0.353609	0.742118	0.624584
266888351	C	0.369711	0.689941	0.684711
266888351	C	0.426956	0.713154	0.830564
266888351	C	0.229878	0.842896	0.704485
266888351	C	0.136818	0.689607	0.842047
266888351	O	0.215764	0.843173	0.783434
266888351	O	0.100075	0.63683	0.841049
266888351	H	0.373288	0.595974	0.747955
266888351	H	0.427447	0.661361	0.739786
266888351	O	0.328027	0.648119	0.844484
266888351	O	0.202085	0.637789	0.87495
266888351	O	0.249322	0.678557	0.905535
266888351	O	0.236918	0.64811	0.898181
266888351	C	0.251368	0.660085	0.903166
266888351	Fe	0.232635	0.699218	0.890673
266888351	O	0.21759	0.677904	0.878849
266888351	Fe	0.20805	0.656853	0.896119
266888351	O	0.198301	0.633122	0.914131
266888351	O	0.180227	0.667578	0.892643
266888351	O	0.212068	0.671543	0.920439
266888351	O	0.249087	0.721713	0.903654
266888351	O	0.210876	0.702889	0.911547
266888351	C	0.206046	0.688833	0.923076
266888351	H	0.209147	0.626732	0.920834
266888351	H	0.19195	0.622289	0.906946
266888351	O	0.135649	0.708931	0.916669
266888351	O	0.121872	0.734376	0.882832
266888351	O	0.13884	0.747342	0.906862
266888351	C	0.137419	0.742597	0.888608
266888351	H	0.168516	0.702947	0.915105
266888351	C	0.169829	0.730856	0.874595
266888351	C	0.154415	0.745164	0.874927
266888351	H	0.167614	0.71775	0.88267
266888351	O	0.197638	0.794114	0.862672
266888351	Fe	0.166109	0.830203	0.873605
266888351	O	0.215778	0.816573	0.914773
266888351	O	0.158108	0.822208	0.902586
266888351	Fe	0.205938	0.805997	0.889094
266888351	O	0.193965	0.830751	0.882319
266888351	O	0.220478	0.77892	0.896999
266888351	O	0.179796	0.796377	0.90379
266888351	O	0.232568	0.812937	0.875968
266888351	C	0.165963	0.807789	0.912268
266888351	C	0.240843	0.82942	0.869322
266888351	H	0.235173	0.782048	0.896662
266888351	H	0.216771	0.777795	0.9113
266888351	O	0.129193	0.676397	0.0166828
266888351	O	0.125613	0.679975	0.984953
266888351	C	0.127602	0.687463	0.00235897
266888351	Fe	0.125994	0.652786	0.970072
266888351	O	0.12798	0.62683	0.953405
266888351	O	0.155965	0.653673	0.967043
266888351	Fe	0.144192	0.650607	0.0162154
266888351	O	0.127179	0.639769	0.9946
266888351	O	0.161162	0.660479	0.0384472
266888351	O	0.16314	0.665533	0.997015
266888351	O	0.122754	0.639456	0.0361273
266888351	C	0.165516	0.665449	0.97791
266888351	H	0.175316	0.658468	0.0336251
266888351	H	0.158655	0.651346	0.0505619
266888351	F	0.124442	0.666721	0.946332
266888351	O	0.174449	0.759667	0.0281829
266888351	C	0.175586	0.74253	0.0195872
266888351	O	0.191212	0.73181	0.0186831
266888351	O	0.240393	0.752984	0.985786
266888351	O	0.234338	0.729165	0.00548762
266888351	C	0.246869	0.739719	0.99725
266888351	O	0.216239	0.766183	0.0194872
266888351	Fe	0.21882	0.738022	0.0296273
266888351	O	0.221537	0.708342	0.0391096
266888351	O	0.207717	0.744547	0.0567249
266888351	C	0.213391	0.760477	0.0662402
266888351	O	0.245607	0.743185	0.0425788
266888351	H	0.227048	0.701746	0.0276181
266888351	H	0.20751	0.70496	0.0411743
266888351	O	0.120197	0.705715	0.947309
266888351	C	0.136125	0.706027	0.935546
266888351	O	0.13104	0.755256	0.947248
266888351	C	0.123256	0.747031	0.962452
266888351	O	0.139497	0.714753	0.081574
266888351	Fe	0.115653	0.733639	0.0805599
266888351	O	0.122712	0.738893	0.050493
266888351	H	0.1124	0.747815	0.044541
266888351	H	0.120504	0.726073	0.0430021
266888351	C	0.123258	0.721686	0.989967
266888351	C	0.149234	0.716683	0.0136047
266888351	C	0.133093	0.738252	0.980686
266888351	C	0.15785	0.735189	0.00809685
266888351	C	0.148925	0.745958	0.99137
266888351	C	0.131742	0.710109	0.00428856
266888351	H	0.156273	0.707772	0.02559
266888351	H	0.155828	0.759676	0.984778
266888351	C	0.171578	0.700291	0.931058
266888351	C	0.188916	0.681404	0.955165
266888351	C	0.15573	0.701423	0.943603
266888351	C	0.173416	0.682972	0.967777
266888351	C	0.158751	0.697295	0.962768
266888351	C	0.189036	0.690826	0.936798
266888351	H	0.200485	0.670943	0.95823
266888351	H	0.148516	0.701118	0.973635
266888351	H	0.11362	0.66586	0.0620071
266888351	O	0.221674	0.807247	0.00488757
266888351	O	0.215812	0.807288	0.0364562
266888351	C	0.225139	0.814246	0.0220564
266888351	Fe	0.195597	0.78352	0.0314379
266888351	O	0.185253	0.793033	0.00309044
266888351	Fe	0.22985	0.779088	0.996937
266888351	O	0.206835	0.776672	0.0602227
266888351	O	0.243892	0.792431	0.97264
266888351	O	0.203735	0.778123	0.979935
266888351	C	0.188149	0.787898	0.98519
266888351	H	0.238775	0.78409	0.961432
266888351	F	0.175169	0.799639	0.0416688
266888351	C	0.24115	0.830395	0.0237764
266888351	C	0.143	0.809889	0.943111
266888351	C	0.176714	0.797886	0.94845
266888351	C	0.138866	0.807535	0.964198
266888351	C	0.172971	0.794648	0.969238
266888351	C	0.153735	0.799597	0.976365
266888351	C	0.161196	0.804184	0.934584
266888351	H	0.191687	0.796344	0.943267
266888351	H	0.150292	0.798065	0.992405
266888351	H	0.237473	0.805765	0.970454
266888351	C	0.221998	0.83338	0.920013
266888351	C	0.252118	0.831531	0.939209
266888351	H	0.248395	0.730637	0.0494214
266888351	C	0.173727	0.669358	0.874707
266888351	C	0.156528	0.763096	0.864892
266888351	C	0.229198	0.760626	0.0818715
266888351	O	0.16057	0.625072	0.0165104
266888351	C	0.187394	0.734719	0.863792
266888351	C	0.174733	0.768473	0.857628
266888351	O	0.255038	0.697839	0.870428
266888351	O	0.16667	0.8013	0.864437
266888351	C	0.180226	0.789165	0.861105
266888351	O	0.2153	0.720034	0.876542
266888351	H	0.134105	0.818053	0.932864
266888351	H	0.140168	0.646472	0.879997
266888351	F	0.139942	0.829249	0.865316
266888351	C	0.152884	0.674183	0.870485
266888351	O	0.120235	0.787008	0.91372
266888351	C	0.202932	0.719347	0.863014
266888351	O	0.183962	0.667344	0.858334
266888351	C	0.138261	0.659271	0.871014
266888351	Fe	0.112807	0.756649	0.920715
266888351	O	0.133416	0.75845	0.086664
266888351	C	0.213663	0.632969	0.861386
266888351	H	0.128141	0.787353	0.901769
266888351	H	0.111687	0.714421	0.983017
266888351	H	0.107157	0.791626	0.910334
266888351	Fe	0.110305	0.713951	0.900984
266888351	C	0.103524	0.639301	0.0324175
266888351	F	0.114939	0.697611	0.880438
266888351	C	0.120092	0.816674	0.973691
266888351	O	0.104657	0.744468	0.961236
266888351	C	0.15118	0.690128	0.85732
266888351	C	0.135678	0.61044	0.95809
266888351	Fe	0.113717	0.614992	0.996662
266888351	C	0.215878	0.611551	0.857501
266888351	H	0.245706	0.63439	0.931247
266888351	O	0.116926	0.817318	0.992496
266888351	C	0.152179	0.608808	0.0211819
266888351	O	0.104006	0.731022	0.923149
266888351	H	0.23293	0.728464	0.0814026
266888351	O	0.106788	0.823303	0.96213
266888351	H	0.145406	0.775202	0.867306
266888351	C	0.256232	0.690323	0.853495
266888351	C	0.190483	0.754015	0.856097
266888351	O	0.222235	0.646215	0.851352
266888351	C	0.124025	0.658537	0.855485
266888351	F	0.128991	0.832452	0.0278215
266888351	H	0.221548	0.604313	0.887364
266888351	Fe	0.213006	0.675858	0.851254
266888351	C	0.23844	0.742549	0.0882507
266888351	O	0.133774	0.605863	0.017808
266888351	H	0.163235	0.699434	0.854786
266888351	O	0.132693	0.602523	0.975648
266888351	H	0.229232	0.792746	0.0839291
266888351	O	0.128567	0.624764	0.853055
266888351	C	0.116283	0.638925	0.849873
266888351	C	0.231963	0.83471	0.938517
266888351	C	0.146522	0.599346	0.942232
266888351	O	0.202182	0.704731	0.850398
266888351	O	0.251731	0.599653	0.940241
266888351	C	0.219665	0.598006	0.872817
266888351	C	0.23683	0.778997	0.0887299
266888351	H	0.123347	0.607143	0.921811
266888351	C	0.138527	0.599772	0.922735
266888351	H	0.142985	0.676522	0.0903635
266888351	O	0.100344	0.687074	0.912606
266888351	O	0.299508	0.832383	0.0936943
266888351	O	0.0964941	0.628983	0.0174402
266888351	O	0.426837	0.707277	0.000839776
266888351	H	0.242462	0.725504	0.915395
266888351	C	0.30541	0.797237	0.848062
266888351	H	0.247954	0.734862	0.895543
266888351	O	0.255764	0.7812	0.0133386
266888351	H	0.258339	0.819227	0.931203
266888351	O	0.100478	0.708618	0.0710997
266888351	H	0.200142	0.84255	0.0482573
266888351	H	0.204188	0.757897	0.84908
266888351	H	0.324992	0.597025	0.867077
266888351	F	0.357101	0.814737	0.849144
266888351	H	0.367992	0.763215	0.951475
266888351	C	0.0978308	0.663723	0.0595313
266888351	O	0.419479	0.737478	0.95705
266888351	O	0.421782	0.736494	0.857331
266888351	C	0.278273	0.744316	0.0168257
266888351	C	0.334391	0.661393	0.0711987
266888351	H	0.410549	0.752767	0.92795
266888351	O	0.0970529	0.652032	0.972089
266888351	C	0.278239	0.723102	0.988669
266888351	H	0.379011	0.635439	0.00896163
266888351	H	0.254494	0.787459	0.026308
266888351	H	0.094656	0.834397	0.0352645
266888351	O	0.350279	0.839983	0.995193
266888351	H	0.140447	0.598929	0.0564208
266888351	O	0.412161	0.826409	0.852516
266888351	H	0.25682	0.814964	0.00173516
266888351	C	0.25756	0.826975	0.0119464
266888351	O	0.338594	0.81144	0.0855066
266888351	H	0.291668	0.594797	0.845853
266888351	C	0.28961	0.675759	0.849499
266888351	H	0.358091	0.613587	0.949167
266888351	H	0.306627	0.840445	0.044226
266888351	O	0.324926	0.74831	0.0396027
266888351	C	0.287198	0.653153	0.906524
266888351	H	0.285741	0.802002	0.0676073
266888351	C	0.309897	0.678134	0.84688
266888351	H	0.390824	0.827361	0.890747
266888351	O	0.329566	0.643261	0.97841
266888351	Fe	0.114255	0.844393	0.00739545
266888351	C	0.297272	0.73912	0.0213571
266888351	C	0.292859	0.830158	0.00240949
266888351	H	0.347063	0.604162	0.915231
266888351	C	0.348382	0.733562	0.0868737
266888351	H	0.386203	0.679737	0.899603
266888351	O	0.42133	0.735736	0.0331413
266888351	C	0.408652	0.660152	0.870821
266888351	C	0.399862	0.716986	0.0708718
266888351	C	0.302629	0.832528	0.85233
266888351	H	0.402079	0.620004	0.882968
266888351	O	0.397623	0.673417	0.863995
266888351	O	0.340453	0.660488	0.0893365
266888351	C	0.294972	0.622733	0.923062
266888351	H	0.312446	0.616598	0.869107
266888351	C	0.262031	0.636103	0.92606
266888351	O	0.399151	0.70402	0.0562742
266888351	O	0.323856	0.783882	0.984174
266888351	O	0.355273	0.684834	0.994755
266888351	C	0.261718	0.829495	0.8631
266888351	O	0.409251	0.644028	0.860361
266888351	H	0.288017	0.769058	0.978114
266888351	O	0.320253	0.609093	0.859133
266888351	C	0.341221	0.736257	0.895325
266888351	H	0.355044	0.624976	0.0672819
266888351	C	0.311406	0.613366	0.972851
266888351	C	0.358908	0.657303	0.0178868
266888351	C	0.360955	0.667288	0.99813
266888351	C	0.378005	0.822889	0.00867676
266888351	H	0.345519	0.72203	0.887465
266888351	C	0.361709	0.601693	0.909097
266888351	O	0.350258	0.743419	0.850491
266888351	H	0.279396	0.696977	0.936694
266888351	C	0.306401	0.74734	0.0395752
266888351	Fe	0.345518	0.625472	0.853024
266888351	C	0.307858	0.726601	0.00908816
266888351	Fe	0.305395	0.802032	0.967775
266888351	O	0.319542	0.672444	0.067463
266888351	H	0.307508	0.801324	0.0592162
266888351	O	0.357477	0.840736	0.942443
266888351	F	0.367577	0.717574	0.974115
266888351	C	0.359458	0.755724	0.00149038
266888351	O	0.381533	0.685763	0.9542
266888351	C	0.371297	0.75991	0.967552
266888351	C	0.284909	0.838817	0.953975
266888351	C	0.393498	0.745474	0.991299
266888351	C	0.406321	0.804408	0.0236925
266888351	O	0.368013	0.642769	0.849513
266888351	C	0.351506	0.75683	0.863635
266888351	F	0.3657	0.692908	0.876614
266888351	C	0.388425	0.829625	0.0428691
266888351	C	0.2674	0.65044	0.911873
266888351	O	0.279059	0.716715	0.0872002
266888351	C	0.375148	0.831912	0.0275655
266888351	C	0.363994	0.826924	0.992576
266888351	O	0.338161	0.670678	0.865433
266888351	C	0.338117	0.771928	0.895166
266888351	C	0.388957	0.750374	0.97174
266888351	O	0.34505	0.785693	0.959593
266888351	C	0.341316	0.779108	0.976859
266888351	O	0.328964	0.71161	0.975723
266888351	C	0.418189	0.665682	0.9339
266888351	O	0.30267	0.690561	0.971782
266888351	O	0.282983	0.682726	0.936409
266888351	C	0.265272	0.601946	0.927539
266888351	C	0.377455	0.605876	0.0333546
266888351	C	0.394553	0.809539	0.00641263
266888351	C	0.401051	0.67309	0.926416
266888351	H	0.304874	0.611472	0.927512
266888351	C	0.293774	0.81404	0.856033
266888351	C	0.370697	0.640346	0.02043
266888351	O	0.365854	0.816857	0.977169
266888351	C	0.325021	0.790477	0.925952
266888351	Fe	0.353865	0.696998	0.965495
266888351	O	0.334871	0.838283	0.0706678
266888351	O	0.323016	0.794062	0.854567
266888351	C	0.325435	0.664165	0.85316
266888351	O	0.363615	0.622294	0.959963
266888351	O	0.322002	0.715139	0.0716945
266888351	H	0.303559	0.758867	0.0663565
266888351	C	0.298943	0.718997	0.991623
266888351	O	0.332901	0.639308	0.933884
266888351	C	0.334595	0.716498	0.928342
266888351	H	0.402713	0.676298	0.0107863
266888351	O	0.400676	0.771683	0.0318587
266888351	O	0.38059	0.738627	0.0396261
266888351	O	0.361313	0.601215	0.858811
266888351	H	0.322696	0.723421	0.0130821
266888351	O	0.372612	0.658587	0.938854
266888351	C	0.329439	0.604293	0.980675
266888351	C	0.314253	0.63648	0.970176
266888351	H	0.386895	0.800212	0.945604
266888351	H	0.291686	0.666299	0.897598
266888351	C	0.321912	0.649271	0.921284
266888351	C	0.346329	0.651981	0.0529532
266888351	C	0.275457	0.83736	0.0143796
266888351	Fe	0.311703	0.679237	0.946243
266888351	H	0.414583	0.70496	0.992459
266888351	Fe	0.300494	0.694375	0.0818316
266888351	O	0.285413	0.693208	0.0541354
266888351	O	0.413523	0.728985	0.0703171
266888351	O	0.369761	0.650771	0.889515
266888351	H	0.347653	0.757328	0.0122673
266888351	H	0.359946	0.712778	0.0630989
266888351	H	0.422585	0.670976	0.0222099
266888351	H	0.390857	0.826922	0.912073
266888351	C	0.402683	0.815044	0.0417258
266888351	H	0.37826	0.62467	0.957585
266888351	H	0.266885	0.797599	0.863343
266888351	C	0.335199	0.73584	0.915325
266888351	F	0.389934	0.76554	0.0691439
266888351	H	0.341007	0.612616	0.987901
266888351	O	0.350209	0.710381	0.937291
266888351	H	0.372264	0.789486	0.930802
266888351	O	0.325966	0.821883	0.965202
266888351	O	0.387509	0.603064	0.0170352
266888351	C	0.38371	0.673416	0.939968
266888351	C	0.310247	0.706506	0.978439
266888351	C	0.382281	0.721406	0.083286
266888351	H	0.280977	0.60852	0.963696
266888351	C	0.356263	0.633512	0.0536882
266888351	O	0.359424	0.773238	0.858536
266888351	F	0.404059	0.59805	0.980486
266888351	H	0.270037	0.716053	0.976087
266888351	C	0.414328	0.783628	0.025715
266888351	C	0.273718	0.812378	0.860973
266888351	C	0.368887	0.627061	0.0369443
266888351	O	0.344858	0.631084	0.882485
266888351	H	0.397451	0.800969	0.991876
266888351	Fe	0.406084	0.751848	0.0515266
266888351	O	0.40881	0.676562	0.0248327
266888351	O	0.31817	0.709323	0.933744
266888351	Fe	0.413789	0.706607	0.0290499
266888351	C	0.344074	0.754331	0.884926
266888351	H	0.284108	0.662144	0.857018
266888351	H	0.411792	0.811672	0.0541224
266888351	H	0.338703	0.785336	0.886918
266888351	O	0.386918	0.714471	0.0182278
266888351	O	0.335384	0.806668	0.925488
266888351	H	0.290633	0.705163	0.0481613
266888351	Fe	0.350672	0.813083	0.951493
266888351	C	0.344226	0.82929	0.0837631
266888351	C	0.403992	0.748977	0.955115
266888351	C	0.372698	0.615773	0.898583
266888351	H	0.273941	0.677065	0.947577
266888351	O	0.338276	0.675864	0.955748
266888351	C	0.326898	0.728832	0.083984
266888351	H	0.337434	0.675568	0.0320678
266888351	O	0.387548	0.836435	0.901876
266888351	H	0.3268	0.752582	0.939682
266888351	C	0.41342	0.662765	0.89204
266888351	H	0.407022	0.738443	0.994664
266888351	O	0.304258	0.648582	0.957972
266888351	O	0.313814	0.787595	0.941478
266888351	H	0.420706	0.668148	0.950145
266888351	C	0.362854	0.721614	0.0760102
266888351	C	0.330107	0.77198	0.914507
266888351	O	0.29027	0.815655	0.991149
266888351	O	0.376079	0.801986	0.936223
266888351	O	0.298817	0.796555	0.0697734
266888351	O	0.322145	0.667573	0.921332
266888351	C	0.379997	0.732309	0.0218813
266888351	O	0.36749	0.657473	0.983316
266888351	C	0.295089	0.601602	0.967055
266888351	H	0.270619	0.694062	0.055513
266888351	O	0.294849	0.753522	0.0551177
266888351	H	0.281331	0.774291	0.956506
266888351	Fe	0.35033	0.65025	0.95816
266888351	H	0.266689	0.788528	0.00675206
266888351	C	0.268241	0.736255	0.999967
266888351	O	0.400302	0.758265	0.937195
266888351	C	0.30193	0.64056	0.914581
266888351	C	0.329939	0.75368	0.923679
266888351	C	0.356676	0.76421	0.982929
266888351	O	0.309531	0.838476	0.00343443
266888351	C	0.398807	0.672896	0.905041
266888351	O	0.28783	0.820129	0.951625
266888351	O	0.282765	0.78084	0.970077
266888351	C	0.377759	0.74543	0.00525964
266888351	Fe	0.367632	0.667924	0.863815
266888351	C	0.275096	0.620804	0.927587
266888351	C	0.346183	0.662612	0.0344649
266888351	C	0.361558	0.633619	0.891248
266888351	C	0.391979	0.609417	0.8906
266888351	H	0.2709	0.754825	0.0261542
266888351	O	0.175089	0.838682	0.84533
266888351	O	0.229698	0.595494	0.974673
266888351	O	0.100621	0.595017	0.854829
266888351	H	0.362089	0.840712	0.03094
266888351	C	0.265106	0.844563	0.948502
266888351	H	0.242021	0.596763	0.983201
266888351	H	0.173477	0.594723	0.958729
266888351	C	0.361179	0.836881	0.0943201
266888351	H	0.317797	0.832935	0.846817
266888351	H	0.270665	0.603508	0.845074
266888351	O	0.145518	0.910012	0.127541
266888351	O	0.137944	0.879472	0.132671
266888351	C	0.13981	0.896968	0.13965
266888351	Fe	0.171646	0.91149	0.110769
266888351	O	0.206822	0.878044	0.131476
266888351	O	0.187682	0.905662	0.135796
266888351	C	0.199436	0.891498	0.142985
266888351	C	0.245645	0.92756	0.143122
266888351	O	0.113925	0.874606	0.221001
266888351	O	0.145605	0.877206	0.217832
266888351	C	0.128866	0.884795	0.21486
266888351	H	0.108614	0.0805962	0.283774
266888351	C	0.167311	0.862675	0.184017
266888351	C	0.247655	0.917565	0.208379
266888351	H	0.237332	0.909035	0.198982
266888351	C	0.1317	0.924769	0.163054
266888351	C	0.130808	0.892344	0.178024
266888351	C	0.12667	0.899638	0.19734
266888351	C	0.123112	0.920789	0.198043
266888351	C	0.134475	0.904097	0.16075
266888351	H	0.132282	0.876717	0.175553
266888351	H	0.119509	0.92795	0.212076
266888351	C	0.248948	0.916935	0.123555
266888351	C	0.188836	0.882859	0.204299
266888351	C	0.181254	0.894464	0.173048
266888351	C	0.208028	0.875429	0.198463
266888351	C	0.199241	0.888843	0.164325
266888351	C	0.213355	0.878767	0.178186
266888351	C	0.174882	0.883145	0.188453
266888351	H	0.169803	0.900203	0.165146
266888351	H	0.183969	0.879439	0.219172
266888351	O	0.172419	0.941629	0.115824
266888351	O	0.196882	0.972522	0.179626
266888351	O	0.212631	0.000663553	0.180193
266888351	C	0.196855	0.990598	0.181812
266888351	Fe	0.239114	0.988935	0.188517
266888351	O	0.227904	0.933661	0.145892
266888351	O	0.225879	0.966014	0.206146
266888351	Fe	0.213861	0.956009	0.162554
266888351	O	0.238289	0.970247	0.167449
266888351	O	0.239044	0.964532	0.128487
266888351	O	0.187806	0.941566	0.156619
266888351	O	0.21942	0.938548	0.187344
266888351	O	0.210099	0.976199	0.138037
266888351	C	0.227675	0.946943	0.202561
266888351	C	0.224211	0.976318	0.12593
266888351	H	0.17867	0.953138	0.153089
266888351	H	0.184624	0.93788	0.17107
266888351	F	0.239135	0.00649409	0.209775
266888351	H	0.230493	0.959514	0.265157
266888351	C	0.110002	0.951279	0.17772
266888351	O	0.116471	0.987783	0.219785
266888351	C	0.135265	0.990426	0.220394
266888351	O	0.12344	0.0308043	0.218696
266888351	Fe	0.198433	0.0700809	0.113507
266888351	O	0.223932	0.0544482	0.115338
266888351	F	0.188647	0.0532249	0.133671
266888351	C	0.136316	0.992324	0.18286
266888351	C	0.167631	0.994493	0.201703
266888351	C	0.145853	0.997964	0.165502
266888351	C	0.177592	0.999352	0.183468
266888351	C	0.166887	0.00131211	0.166097
266888351	C	0.146499	0.991038	0.201325
266888351	H	0.176098	0.988817	0.214225
266888351	H	0.175764	0.0022127	0.15313
266888351	C	0.243937	0.937106	0.212781
266888351	C	0.121802	0.932301	0.180137
266888351	H	0.132657	0.933898	0.149089
266888351	H	0.117508	0.0438059	0.220013
266888351	O	0.117146	0.994891	0.144391
266888351	C	0.135942	0.996659	0.145635
266888351	O	0.147056	0.997552	0.128185
266888351	F	0.233253	0.875627	0.267756
266888351	O	0.146263	0.857496	0.310899
266888351	C	0.127592	0.861084	0.3128
266888351	Fe	0.174986	0.905448	0.331778
266888351	O	0.153433	0.916276	0.312252
266888351	C	0.135542	0.920228	0.317399
266888351	O	0.185953	0.888861	0.309393
266888351	C	0.197611	0.87485	0.313873
266888351	C	0.219762	0.877721	0.312632
266888351	C	0.227885	0.894349	0.302894
266888351	H	0.218111	0.903933	0.294438
266888351	O	0.251295	0.0549307	0.305519
266888351	O	0.216406	0.036979	0.316545
266888351	Fe	0.223366	0.0649647	0.305562
266888351	O	0.220518	0.0532179	0.277037
266888351	O	0.195968	0.0776184	0.301971
266888351	O	0.183361	0.0603441	0.325613
266888351	C	0.181548	0.0684476	0.308877
266888351	H	0.222594	0.0391636	0.279129
266888351	H	0.206316	0.0540337	0.272348
266888351	O	0.234561	0.969839	0.275459
266888351	H	0.237409	0.98094	0.267301
266888351	O	0.192994	0.928675	0.3233
266888351	C	0.110594	0.982182	0.287601
266888351	O	0.12365	0.983981	0.274184
266888351	O	0.143698	0.997546	0.236113
266888351	Fe	0.133727	0.00997182	0.262457
266888351	O	0.16156	0.00580943	0.273871
266888351	O	0.125325	0.0249119	0.288119
266888351	C	0.116726	0.0414094	0.288064
266888351	O	0.142669	0.038123	0.251933
266888351	H	0.166046	0.0196894	0.277407
266888351	H	0.162215	0.99713	0.286284
266888351	H	0.120783	0.989532	0.183952
266888351	H	0.242845	0.00185042	0.317835
266888351	C	0.122568	0.949717	0.300009
266888351	C	0.120607	0.929725	0.304329
266888351	H	0.137142	0.957237	0.302212
266888351	C	0.148845	0.0554544	0.299944
266888351	C	0.129437	0.0586638	0.293424
266888351	H	0.154556	0.0402652	0.302388
266888351	H	0.157429	0.0377796	0.2526
266888351	C	0.106634	0.961524	0.294011
266888351	H	0.187313	0.940258	0.330003
266888351	H	0.191479	0.932011	0.308698
266888351	O	0.105784	0.0125589	0.254264
266888351	C	0.235546	0.99779	0.331486
266888351	H	0.127083	0.0309485	0.204169
266888351	O	0.103046	0.955025	0.160399
266888351	Fe	0.10416	0.848238	0.207716
266888351	O	0.225123	0.0739187	0.331509
266888351	O	0.190261	0.859139	0.322593
266888351	H	0.115777	0.863645	0.272292
266888351	H	0.214087	0.0164128	0.125259
266888351	O	0.128525	0.91509	0.33354
266888351	H	0.138642	0.000713098	0.117106
266888351	C	0.214856	0.0286127	0.334747
266888351	H	0.226222	0.870727	0.170688
266888351	O	0.15727	0.857407	0.168697
266888351	O	0.120575	0.872164	0.326017
266888351	C	0.232058	0.867059	0.325537
266888351	C	0.161947	0.0707976	0.301625
266888351	C	0.223093	0.0107445	0.112799
266888351	O	0.170729	0.883614	0.106151
266888351	O	0.249233	0.961738	0.313186
266888351	O	0.253477	0.930372	0.286111
266888351	C	0.248415	0.898752	0.304667
266888351	C	0.255138	0.919323	0.301757
266888351	C	0.252407	0.87143	0.327537
266888351	H	0.225108	0.935277	0.110832
266888351	C	0.235849	0.923084	0.108135
266888351	O	0.220887	0.865064	0.230121
266888351	C	0.217891	0.861271	0.211671
266888351	Fe	0.162312	0.85393	0.336179
266888351	O	0.251569	0.010371	0.170822
266888351	C	0.123114	0.0779967	0.28889
266888351	Fe	0.244376	0.857601	0.250862
266888351	O	0.207107	0.087245	0.137086
266888351	Fe	0.194817	0.866347	0.10458
266888351	Fe	0.143975	0.872057	0.10325
266888351	H	0.174822	0.948792	0.102786
266888351	O	0.170464	0.0832881	0.111851
266888351	C	0.225724	0.990653	0.109641
266888351	O	0.171501	0.849855	0.196901
266888351	C	0.114272	0.849894	0.28024
266888351	O	0.100691	0.959142	0.191637
266888351	H	0.158858	0.945322	0.119862
266888351	Fe	0.099857	0.0119778	0.226431
266888351	F	0.172749	0.850694	0.238005
266888351	O	0.111824	0.848086	0.162198
266888351	C	0.255672	0.968085	0.329812
266888351	C	0.114959	0.847756	0.301062
266888351	H	0.225875	0.855386	0.335186
266888351	H	0.160322	0.0736655	0.109027
266888351	O	0.0985233	0.866538	0.18554
266888351	C	0.0985294	0.861455	0.167753
266888351	Fe	0.152444	0.846643	0.219384
266888351	H	0.251303	0.962244	0.230638
266888351	C	0.102217	0.920924	0.301583
266888351	C	0.21899	0.00679433	0.339184
266888351	H	0.0987428	0.0241571	0.19102
266888351	C	0.2299	0.0453649	0.100573
266888351	H	0.168769	0.0835424	0.126445
266888351	C	0.234955	0.0244563	0.10229
266888351	C	0.260447	0.886706	0.316368
266888351	C	0.243079	0.980984	0.340982
266888351	O	0.157929	0.883112	0.340001
266888351	Fe	0.246531	0.0884079	0.342421
266888351	C	0.255935	0.947034	0.225981
266888351	O	0.0991867	0.0423501	0.28152
266888351	H	0.423626	0.899349	0.288021
266888351	H	0.0981946	0.906995	0.156824
266888351	H	0.100256	0.905671	0.307161
266888351	O	0.254263	0.848009	0.173633
266888351	Fe	0.26063	0.96496	0.150268
266888351	O	0.256781	0.875367	0.20568
266888351	C	0.104337	0.0815138	0.335405
266888351	O	0.197839	0.914906	0.0983286
266888351	C	0.259607	0.00990478	0.153647
266888351	H	0.109127	0.929709	0.127742
266888351	Fe	0.262102	0.960777	0.286787
266888351	H	0.257355	0.0438728	0.173605
266888351	O	0.225571	0.845836	0.203503
266888351	O	0.0997552	0.996823	0.293042
266888351	H	0.097187	0.0533057	0.330331
266888351	O	0.259923	0.934756	0.153248
266888351	O	0.23315	0.0921133	0.29366
266888351	H	0.41355	0.0809961	0.217305
266888351	F	0.100813	0.0913134	0.122815
266888351	Fe	0.36826	0.0522306	0.334807
266888351	H	0.22325	0.844651	0.116102
266888351	H	0.263718	0.040932	0.237025
266888351	O	0.22124	0.848984	0.101849
266888351	O	0.423532	0.0386383	0.101431
266888351	C	0.425065	0.928383	0.208419
266888351	O	0.0947846	0.931017	0.125719
266888351	C	0.427539	0.0481519	0.251732
266888351	H	0.265668	0.855021	0.171129
266888351	F	0.261358	0.847482	0.13254
266888351	C	0.382145	0.0143147	0.34344
266888351	O	0.263008	0.993975	0.143279
266888351	C	0.42283	0.0747071	0.227992
266888351	C	0.263189	0.90206	0.118952
266888351	C	0.26178	0.891978	0.100363
266888351	C	0.267718	0.0295355	0.146773
266888351	C	0.26524	0.0453195	0.159268
266888351	Fe	0.400083	0.0228669	0.110793
266888351	H	0.326098	0.845123	0.257768
266888351	H	0.418362	0.946411	0.254207
266888351	H	0.283671	0.0899306	0.242367
266888351	C	0.304786	0.0279216	0.278058
266888351	C	0.329806	0.845904	0.156121
266888351	O	0.284174	0.847248	0.20523
266888351	C	0.320042	0.00847392	0.209028
266888351	O	0.330224	0.893883	0.171293
266888351	H	0.394045	0.884128	0.23835
266888351	H	0.366234	0.97907	0.342007
266888351	O	0.261456	0.926163	0.318499
266888351	O	0.12227	0.0766223	0.338064
266888351	C	0.271872	0.937968	0.235327
266888351	O	0.413887	0.883193	0.0950883
266888351	C	0.33765	0.0100265	0.124568
266888351	Fe	0.287843	0.0621202	0.218478
266888351	H	0.262128	0.0790073	0.241268
266888351	H	0.34677	0.925803	0.335574
266888351	C	0.275736	0.917937	0.230867
266888351	O	0.261762	0.879347	0.238041
266888351	O	0.378499	0.850078	0.339393
266888351	H	0.34169	0.847531	0.324596
266888351	C	0.412325	0.941005	0.198409
266888351	H	0.251683	0.0501152	0.218769
266888351	C	0.324618	0.890429	0.121527
266888351	C	0.427336	0.930769	0.228575
266888351	O	0.365025	0.920183	0.170545
266888351	O	0.425298	0.871026	0.258526
266888351	Fe	0.383902	0.898819	0.170723
266888351	O	0.29919	0.98518	0.273712
266888351	C	0.26179	0.886162	0.220041
266888351	F	0.360149	0.0663263	0.237687
266888351	H	0.312934	0.951025	0.200114
266888351	C	0.327847	0.921599	0.103459
266888351	O	0.399369	0.0266151	0.230358
266888351	H	0.287298	0.00782505	0.207224
266888351	O	0.422525	0.976923	0.105788
266888351	O	0.361952	0.0463066	0.304655
266888351	C	0.335611	0.888709	0.278432
266888351	C	0.425445	0.0761609	0.306341
266888351	H	0.274723	0.0180471	0.316927
266888351	H	0.320943	0.86335	0.202218
266888351	O	0.303407	0.0390577	0.206391
266888351	H	0.409948	0.0804965	0.304709
266888351	O	0.306214	0.0713176	0.102432
266888351	O	0.314715	0.9175	0.204159
266888351	F	0.376182	0.965918	0.141287
266888351	C	0.370382	0.00922904	0.139893
266888351	H	0.375103	0.0576183	0.17466
266888351	H	0.397094	0.969641	0.196447
266888351	C	0.359084	0.860526	0.27046
266888351	O	0.382757	0.928311	0.132747
266888351	Fe	0.340083	0.919158	0.186693
266888351	C	0.329956	0.97311	0.145178
266888351	C	0.367437	0.0899841	0.173283
266888351	C	0.337555	0.996027	0.207297
266888351	O	0.389579	0.053809	0.211388
266888351	O	0.359196	0.961814	0.180296
266888351	C	0.315892	0.905811	0.110567
266888351	O	0.352785	0.895035	0.204589
266888351	H	0.398511	0.0924115	0.12445
266888351	C	0.327328	0.994397	0.114503
266888351	C	0.418481	0.853872	0.317072
266888351	O	0.350039	0.941366	0.204521
266888351	H	0.285994	0.911023	0.241007
266888351	C	0.393481	0.849651	0.117947
266888351	C	0.292825	0.0169987	0.29018
266888351	O	0.323511	0.931561	0.289127
266888351	C	0.350197	0.959076	0.197316
266888351	C	0.406342	0.959521	0.227701
266888351	H	0.334139	0.850726	0.14203
266888351	O	0.398604	0.0500658	0.327737
266888351	O	0.332186	0.0406771	0.221238
266888351	C	0.288163	0.99551	0.285394
266888351	O	0.275319	0.0694469	0.191473
266888351	O	0.406771	0.918003	0.17156
266888351	C	0.299037	0.97941	0.202454
266888351	C	0.31376	0.915676	0.295108
266888351	H	0.346767	0.989894	0.1683
266888351	O	0.413853	0.991516	0.169494
266888351	O	0.386396	0.988684	0.231365
266888351	C	0.407567	0.965867	0.315732
266888351	H	0.357463	0.936717	0.104672
266888351	O	0.325866	0.942902	0.167853
266888351	O	0.349888	0.0738224	0.199693
266888351	C	0.262926	0.90746	0.218143
266888351	C	0.288118	0.0494368	0.12447
266888351	O	0.384127	0.899185	0.200065
266888351	H	0.318241	0.964078	0.118022
266888351	O	0.300619	0.916863	0.308561
266888351	C	0.347765	0.00593364	0.141905
266888351	C	0.322703	0.858036	0.265721
266888351	C	0.399109	0.0556901	0.142552
266888351	Fe	0.310382	0.958444	0.281327
266888351	C	0.300361	0.999217	0.207787
266888351	H	0.342605	0.0221528	0.116184
266888351	O	0.395784	0.94878	0.169157
266888351	O	0.299532	0.0836712	0.173607
266888351	C	0.350619	0.0880693	0.187262
266888351	H	0.311084	0.0208727	0.264838
266888351	H	0.380243	0.0432218	0.208004
266888351	O	0.383854	0.897409	0.139718
266888351	H	0.274829	0.890906	0.319582
266888351	C	0.401861	0.000757871	0.315139
266888351	C	0.282405	0.948337	0.251307
266888351	Fe	0.375989	0.858562	0.310039
266888351	C	0.296244	0.058394	0.294386
266888351	C	0.387204	0.998156	0.330146
266888351	H	0.316457	0.90696	0.214974
266888351	C	0.402591	0.854414	0.235738
266888351	O	0.339075	0.0506297	0.341371
266888351	H	0.352149	0.879434	0.133488
266888351	C	0.411926	0.984603	0.307579
266888351	C	0.389896	0.870422	0.231771
266888351	O	0.34578	0.941406	0.143001
266888351	C	0.317535	0.972407	0.323023
266888351	O	0.406099	0.864159	0.307003
266888351	O	0.282787	0.960722	0.129239
266888351	H	0.382772	0.894654	0.31087
266888351	Fe	0.413537	0.0194323	0.158933
266888351	C	0.375323	0.869951	0.216804
266888351	C	0.284088	0.0264645	0.307213
266888351	C	0.379513	0.980132	0.332741
266888351	H	0.360826	0.893818	0.313704
266888351	F	0.408298	0.0271228	0.184122
266888351	O	0.273587	0.962876	0.258819
266888351	C	0.324813	0.976315	0.125246
266888351	Fe	0.288067	0.941015	0.322484
266888351	O	0.298008	0.942121	0.258991
266888351	C	0.301351	0.882604	0.280952
266888351	O	0.345098	0.856536	0.313685
266888351	C	0.340807	0.989668	0.153369
266888351	H	0.351737	0.00231251	0.204447
266888351	O	0.324077	0.0686324	0.254731
266888351	H	0.302497	0.903863	0.105154
266888351	H	0.347091	0.962114	0.272496
266888351	C	0.356409	0.90881	0.121776
266888351	O	0.267443	0.0697082	0.330828
266888351	C	0.286721	0.850702	0.264602
266888351	C	0.297011	0.0542141	0.104765
266888351	O	0.366566	0.0232406	0.339669
266888351	C	0.314837	0.966487	0.204261
266888351	H	0.339755	0.869754	0.317689
266888351	C	0.284459	0.0473916	0.308157
266888351	C	0.303964	0.863816	0.271352
266888351	H	0.416356	0.953498	0.312691
266888351	C	0.338881	0.869861	0.270709
266888351	O	0.273071	0.0849519	0.23352
266888351	C	0.266425	0.0572867	0.316197
266888351	H	0.295727	0.0733848	0.295351
266888351	C	0.321205	0.852357	0.189928
266888351	H	0.286505	0.888686	0.283833
266888351	H	0.323012	0.0158657	0.325119
266888351	C	0.306336	0.0487098	0.278692
266888351	H	0.393047	0.989868	0.264022
266888351	H	0.394142	0.863705	0.175985
266888351	C	0.405879	0.935776	0.177438
266888351	C	0.392015	0.964109	0.329303
266888351	O	0.372408	0.887939	0.318893
266888351	O	0.263999	0.0436445	0.222261
266888351	C	0.31904	0.030751	0.212308
266888351	O	0.414114	0.047959	0.151198
266888351	H	0.303354	0.914451	0.195529
266888351	C	0.330217	0.858161	0.17234
266888351	Fe	0.371125	0.944456	0.156214
266888351	H	0.363814	0.851377	0.191602
266888351	O	0.37285	0.868054	0.280748
266888351	C	0.278586	0.0309584	0.128863
266888351	O	0.268759	0.855427	0.269479
266888351	O	0.335398	0.964838	0.264166
266888351	H	0.282816	0.971969	0.120297
266888351	C	0.283891	0.0727605	0.17486
266888351	H	0.273735	0.897918	0.13064
266888351	H	0.40338	0.871928	0.157238
266888351	O	0.360047	0.877387	0.169038
266888351	C	0.385528	0.86197	0.102415
266888351	H	0.407422	0.0152384	0.312184
266888351	C	0.332404	0.951411	0.152014
266888351	C	0.376312	0.911303	0.129905
266888351	O	0.28257	0.966204	0.172759
266888351	C	0.345052	0.891822	0.126132
266888351	O	0.390694	0.0467547	0.128672
266888351	O	0.324815	0.863299	0.102856
266888351	C	0.334893	0.974352	0.204909
266888351	C	0.42164	0.858894	0.338502
266888351	C	0.286743	0.0651497	0.138443
266888351	O	0.28646	0.951867	0.296233
266888351	O	0.310445	0.0790995	0.214676
266888351	C	0.414139	0.0558921	0.336635
266888351	O	0.271634	0.989066	0.292019
266888351	O	0.376635	0.00725095	0.122089
266888351	H	0.295059	0.0780909	0.13568
266888351	C	0.390789	0.0738446	0.150178
266888351	O	0.399565	0.977229	0.259948
266888351	H	0.347762	0.0492447	0.303463
266888351	O	0.321158	0.977458	0.304934
266888351	C	0.315535	0.870541	0.117209
266888351	C	0.341048	0.877728	0.17001
266888351	H	0.2815	0.017725	0.120818
266888351	C	0.42275	0.858585	0.244542
266888351	O	0.313799	0.954483	0.326583
266888351	O	0.265101	0.980726	0.197938
266888351	C	0.319969	0.986999	0.340066
266888351	C	0.316994	0.895668	0.284679
266888351	O	0.403229	0.874339	0.171301
266888351	O	0.296947	0.0516298	0.245535
266888351	O	0.297759	0.863806	0.124168
266888351	O	0.37046	0.0819593	0.328453
266888351	C	0.417549	0.055981	0.235256
266888351	Fe	0.335845	0.0721893	0.226092
266888351	C	0.40469	0.958077	0.206643
266888351	H	0.362714	0.0321097	0.302181
266888351	C	0.276854	0.0623656	0.156704
266888351	C	0.323381	0.00803418	0.339818
266888351	C	0.281046	0.974988	0.19006
266888351	C	0.370213	0.889526	0.207659
266888351	O	0.381426	0.0162929	0.154288
266888351	C	0.348035	0.923559	0.10935
266888351	C	0.397203	0.976526	0.239862
266888351	C	0.37824	0.072636	0.167073
266888351	H	0.334335	0.954469	0.254528
266888351	C	0.308912	0.0575809	0.258764
266888351	C	0.41703	0.945813	0.238349
266888351	H	0.348953	0.899267	0.280659
266888351	H	0.405815	0.854615	0.127213
266888351	C	0.401926	0.0448028	0.225406
266888351	H	0.405669	0.885562	0.336767
266888351	O	0.272905	0.963821	0.335692
266888351	O	0.417079	0.0117088	0.130982
266888351	H	0.280818	0.949197	0.120871
266888351	C	0.371965	0.851704	0.205469
266888351	C	0.155326	0.0906184	0.297215
266888351	O	0.266078	0.857062	0.0956685
266888351	F	0.118599	0.86099	0.0988907
266888351	H	0.422188	0.0339611	0.258507
266888351	C	0.395623	0.880521	0.0946932
266888351	H	0.375847	0.0471734	0.0957056
266888351	C	0.392451	0.0921873	0.139579
266888351	O	0.282241	0.859746	0.344423
266888351	H	0.211326	0.900122	0.344369
266888351	C	0.208865	0.921184	0.416629
266888351	O	0.141772	0.907282	0.371734
266888351	C	0.159273	0.91472	0.370301
266888351	O	0.134403	0.869689	0.369645
266888351	C	0.126498	0.854272	0.363445
266888351	C	0.192411	0.915279	0.386918
266888351	C	0.171375	0.887865	0.394566
266888351	C	0.206165	0.907151	0.400253
266888351	C	0.185881	0.876895	0.40492
266888351	C	0.203985	0.886948	0.408218
266888351	C	0.174253	0.906669	0.384927
266888351	H	0.15778	0.880998	0.393059
266888351	H	0.214591	0.881305	0.417822
266888351	O	0.129438	0.0382536	0.418629
266888351	O	0.235233	0.991556	0.420841
266888351	C	0.223153	0.00630923	0.422801
266888351	Fe	0.187358	0.98368	0.423114
266888351	O	0.170239	0.962179	0.412332
266888351	C	0.15683	0.957753	0.424369
266888351	O	0.225622	0.929637	0.41954
266888351	O	0.19356	0.924127	0.427152
266888351	O	0.199119	0.985475	0.394947
266888351	Fe	0.229777	0.960173	0.421882
266888351	O	0.220668	0.960821	0.392571
266888351	C	0.211342	0.974784	0.384742
266888351	F	0.170721	0.00362068	0.414219
266888351	O	0.215351	0.072945	0.376474
266888351	C	0.233127	0.0670277	0.380243
266888351	C	0.243492	0.065854	0.417519
266888351	C	0.230869	0.0264535	0.419821
266888351	C	0.235694	0.056734	0.400076
266888351	C	0.229822	0.0369581	0.40131
266888351	C	0.218614	0.98231	0.366098
266888351	H	0.198472	0.0083198	0.362753
266888351	H	0.19389	0.930005	0.381466
266888351	C	0.131377	0.965326	0.401031
266888351	C	0.137626	0.967257	0.420434
266888351	C	0.131291	0.00313075	0.419516
266888351	O	0.182154	0.86809	0.51833
266888351	H	0.175016	0.880039	0.513237
266888351	O	0.180284	0.919963	0.467524
266888351	H	0.169708	0.926148	0.4741
266888351	H	0.191032	0.917806	0.477666
266888351	Fe	0.10057	0.922797	0.534308
266888351	O	0.121583	0.902062	0.542301
266888351	O	0.105912	0.915652	0.506347
266888351	H	0.133868	0.90355	0.534015
266888351	H	0.115711	0.889749	0.536916
266888351	C	0.134514	0.865076	0.586131
266888351	C	0.144836	0.865397	0.567774
266888351	C	0.120047	0.890828	0.480887
266888351	C	0.12268	0.871752	0.472989
266888351	C	0.110758	0.865818	0.457087
266888351	H	0.129178	0.894137	0.493826
266888351	O	0.200829	0.980276	0.552752
266888351	C	0.214381	0.991628	0.558965
266888351	O	0.205953	0.941022	0.538603
266888351	O	0.236969	0.950991	0.547969
266888351	C	0.224918	0.942907	0.536068
266888351	F	0.172619	0.962289	0.541409
266888351	C	0.119601	0.0169881	0.489808
266888351	O	0.125998	0.0350477	0.489112
266888351	O	0.140136	0.0246344	0.446898
266888351	C	0.134243	0.0227378	0.428743
266888351	Fe	0.132537	0.0492924	0.463504
266888351	O	0.160437	0.0519764	0.476562
266888351	O	0.121855	0.072225	0.478525
266888351	O	0.142832	0.0663344	0.44103
266888351	H	0.166549	0.0394573	0.470866
266888351	H	0.158902	0.0510036	0.491122
266888351	Fe	0.158518	0.0800597	0.569028
266888351	O	0.169811	0.0548542	0.553581
266888351	C	0.178898	0.0534834	0.537678
266888351	O	0.178495	0.0675247	0.5252
266888351	O	0.206053	0.00483874	0.430734
266888351	O	0.162015	0.949673	0.4409
266888351	O	0.204076	0.963638	0.43298
266888351	Fe	0.191445	0.943325	0.449465
266888351	O	0.17493	0.985604	0.451857
266888351	O	0.189605	0.963134	0.471726
266888351	C	0.176799	0.977157	0.469038
266888351	O	0.219139	0.93425	0.459414
266888351	O	0.241139	0.958062	0.450797
266888351	C	0.234859	0.944979	0.462464
266888351	O	0.12262	0.945525	0.534415
266888351	O	0.117539	0.950635	0.502167
266888351	C	0.128069	0.953976	0.517862
266888351	O	0.251425	0.0405354	0.503421
266888351	C	0.250005	0.0447464	0.521242
266888351	C	0.235104	0.0369257	0.43725
266888351	C	0.244294	0.0552356	0.436774
266888351	H	0.122907	0.0749516	0.52047
266888351	C	0.232728	0.0214257	0.545211
266888351	C	0.196294	0.0214177	0.547249
266888351	C	0.232128	0.0365827	0.531183
266888351	C	0.195211	0.038433	0.536192
266888351	C	0.212676	0.0438775	0.525123
266888351	C	0.214576	0.0122823	0.551359
266888351	H	0.184351	0.0184619	0.5562
266888351	H	0.211018	0.0534487	0.512813
266888351	H	0.246585	0.0159224	0.549578
266888351	C	0.13367	0.990577	0.51429
266888351	C	0.15793	0.967935	0.501459
266888351	C	0.134492	0.00246483	0.496978
266888351	C	0.161977	0.981704	0.485572
266888351	C	0.151201	0.999257	0.484291
266888351	C	0.142252	0.971278	0.515162
266888351	H	0.165703	0.953696	0.501331
266888351	H	0.154327	0.00871181	0.47219
266888351	H	0.123119	0.993801	0.525718
266888351	C	0.230154	0.943344	0.4992
266888351	C	0.235617	0.93652	0.517509
266888351	C	0.243806	0.941841	0.482889
266888351	H	0.215047	0.947727	0.496078
266888351	C	0.13601	0.98551	0.430265
266888351	H	0.141259	0.986723	0.445626
266888351	C	0.210126	0.999642	0.356747
266888351	C	0.25412	0.927247	0.520048
266888351	C	0.234388	0.973216	0.357345
266888351	H	0.194172	0.866204	0.510035
266888351	F	0.106955	0.897541	0.35921
266888351	O	0.104484	0.0129035	0.479937
266888351	H	0.235355	0.0287147	0.452267
266888351	C	0.104076	0.902855	0.47468
266888351	O	0.184199	0.0809101	0.584837
266888351	O	0.148871	0.857466	0.49412
266888351	O	0.106449	0.0461511	0.450064
266888351	O	0.112497	0.893842	0.41199
266888351	C	0.201837	0.0824547	0.577844
266888351	C	0.132072	0.855374	0.485899
266888351	C	0.158408	0.881385	0.563368
266888351	C	0.11144	0.0870039	0.518266
266888351	C	0.18167	0.85725	0.414564
266888351	H	0.166037	0.882221	0.548888
266888351	C	0.124919	0.00187207	0.399498
266888351	H	0.107934	0.936024	0.567654
266888351	H	0.130548	0.951024	0.393967
266888351	Fe	0.189765	0.95396	0.560604
266888351	O	0.204923	0.0785059	0.558957
266888351	O	0.175864	0.0622703	0.364914
266888351	O	0.132224	0.0820244	0.552168
266888351	H	0.239402	0.959064	0.362767
266888351	O	0.246974	0.070181	0.367842
266888351	O	0.227876	0.986431	0.570991
266888351	Fe	0.2366	0.958101	0.577559
266888351	O	0.174506	0.927123	0.566085
266888351	H	0.121275	0.0145579	0.390214
266888351	C	0.123632	0.982719	0.391095
266888351	C	0.162206	0.895518	0.576816
266888351	O	0.253749	0.86604	0.363022
266888351	C	0.113088	0.979964	0.371083
266888351	C	0.178464	0.91022	0.574573
266888351	O	0.117083	0.081236	0.433017
266888351	H	0.225127	0.0291034	0.387981
266888351	O	0.164309	0.923266	0.354092
266888351	H	0.180235	0.0650415	0.378344
266888351	O	0.173716	0.967698	0.58232
266888351	H	0.247365	0.0817696	0.415996
266888351	F	0.148395	0.0618994	0.586818
266888351	H	0.174423	0.0476028	0.365498
266888351	C	0.134507	0.0822494	0.440083
266888351	O	0.210218	0.948115	0.580866
266888351	O	0.246511	0.929153	0.582585
266888351	O	0.194853	0.907627	0.583846
266888351	O	0.1453	0.854777	0.535818
266888351	F	0.231018	0.852854	0.394799
266888351	C	0.104209	0.853997	0.368925
266888351	C	0.111058	0.0320695	0.579765
266888351	C	0.10452	0.0717922	0.487089
266888351	H	0.125132	0.853341	0.591533
266888351	H	0.112642	0.905515	0.421827
266888351	Fe	0.10396	0.0547949	0.424241
266888351	C	0.258015	0.0591026	0.452979
266888351	O	0.210387	0.0391068	0.350047
266888351	O	0.109248	0.961948	0.365218
266888351	O	0.214756	0.0884425	0.514864
266888351	O	0.257881	0.956401	0.410211
266888351	H	0.159485	0.0872114	0.473743
266888351	C	0.15137	0.895929	0.5944
266888351	H	0.197223	0.880843	0.350389
266888351	H	0.110304	0.85984	0.39939
266888351	H	0.25913	0.923947	0.534686
266888351	O	0.109648	0.0481975	0.590084
266888351	C	0.0999595	0.86072	0.388658
266888351	O	0.103805	0.0636565	0.394598
266888351	Fe	0.132108	0.891475	0.349828
266888351	O	0.177782	0.851002	0.362255
266888351	H	0.107447	0.972489	0.471204
266888351	C	0.217977	0.090302	0.590845
266888351	H	0.0952645	0.0760923	0.3957
266888351	H	0.258779	0.945151	0.400335
266888351	O	0.104337	0.99644	0.361527
266888351	O	0.377451	0.941117	0.347558
266888351	O	0.0960649	0.928642	0.563808
266888351	H	0.3264	0.0830143	0.400716
266888351	C	0.263249	0.935151	0.486297
266888351	O	0.191426	0.850964	0.429562
266888351	O	0.371317	0.0699494	0.592073
266888351	C	0.101479	0.0300246	0.559169
266888351	C	0.142811	0.849189	0.55299
266888351	O	0.123184	0.0159636	0.585517
266888351	Fe	0.201253	0.0680528	0.348298
266888351	O	0.313489	0.094011	0.480917
266888351	O	0.198411	0.895876	0.350707
266888351	C	0.100219	0.0882238	0.501349
266888351	C	0.097481	0.917586	0.489052
266888351	C	0.0950417	0.87893	0.449608
266888351	C	0.0959433	0.0120571	0.551744
266888351	H	0.371849	0.861164	0.346458
266888351	H	0.279006	0.998641	0.488371
266888351	H	0.11711	0.0683848	0.392366
266888351	O	0.165542	0.846211	0.408085
266888351	O	0.344356	0.916993	0.347342
266888351	H	0.192466	0.849914	0.359202
266888351	H	0.41401	0.845544	0.488555
266888351	C	0.410885	0.87449	0.346759
266888351	H	0.310237	0.891932	0.359419
266888351	H	0.26174	0.968595	0.40185
266888351	C	0.3919	0.969189	0.490502
266888351	C	0.38619	0.91256	0.587406
266888351	H	0.29408	0.0673906	0.558537
266888351	O	0.264168	0.0535244	0.531101
266888351	Fe	0.256045	0.844924	0.386733
266888351	H	0.0989998	0.0619836	0.555055
266888351	O	0.261457	0.0763466	0.459741
266888351	H	0.257145	0.00616131	0.492181
266888351	O	0.265799	0.967757	0.573469
266888351	H	0.319159	0.875678	0.346219
266888351	C	0.336593	0.874176	0.534662
266888351	O	0.308012	0.0473167	0.529063
266888351	H	0.226931	0.0874145	0.522328
266888351	H	0.404125	0.946302	0.543942
266888351	F	0.29072	0.929551	0.347367
266888351	C	0.356014	0.908242	0.567858
266888351	H	0.1007	0.997158	0.558861
266888351	H	0.330861	0.858022	0.39351
266888351	O	0.377037	0.0324216	0.399202
266888351	C	0.263265	0.864307	0.346086
266888351	C	0.359939	0.0387978	0.431446
266888351	O	0.369159	0.0940516	0.532844
266888351	C	0.293174	0.883411	0.434822
266888351	H	0.354649	0.0879049	0.481399
266888351	O	0.402228	0.0678378	0.396197
266888351	O	0.405729	0.991237	0.386002
266888351	C	0.406301	0.875693	0.366722
266888351	O	0.350587	0.884145	0.526529
266888351	O	0.333868	0.0913703	0.391928
266888351	O	0.313399	0.0930667	0.514121
266888351	H	0.292214	0.989556	0.530793
266888351	F	0.419608	0.0574538	0.458433
266888351	C	0.268629	0.927117	0.504348
266888351	C	0.345952	0.907476	0.408686
266888351	C	0.327506	0.899858	0.417951
266888351	H	0.419457	0.998191	0.575423
266888351	H	0.390465	0.888407	0.523174
266888351	C	0.311612	0.877815	0.467061
266888351	H	0.36373	0.997259	0.5429
266888351	C	0.418565	0.0344343	0.510193
266888351	H	0.309149	0.083512	0.551291
266888351	H	0.386129	0.0497309	0.445468
266888351	C	0.34238	0.0472565	0.468702
266888351	C	0.337658	0.00581487	0.373264
266888351	C	0.307901	0.952159	0.427909
266888351	O	0.354446	0.912945	0.492762
266888351	C	0.367241	0.905237	0.586505
266888351	H	0.390951	0.921566	0.57565
266888351	O	0.382155	0.902101	0.362795
266888351	O	0.394223	0.0242313	0.587182
266888351	H	0.264869	0.974365	0.559605
266888351	C	0.383845	0.019136	0.572709
266888351	O	0.381624	0.935559	0.389925
266888351	O	0.346133	0.910243	0.389933
266888351	H	0.326596	0.871788	0.491183
266888351	H	0.314534	0.929667	0.461222
266888351	O	0.347525	0.962853	0.531594
266888351	O	0.296013	0.872239	0.475438
266888351	H	0.313886	0.964164	0.361045
266888351	O	0.358925	0.0604698	0.403895
266888351	C	0.362953	0.0482388	0.466121
266888351	C	0.40927	0.980071	0.498812
266888351	C	0.334311	0.984712	0.371899
266888351	O	0.315923	0.856652	0.39629
266888351	H	0.324684	0.973838	0.583858
266888351	C	0.33423	0.0409349	0.357538
266888351	C	0.328228	0.0044124	0.574794
266888351	O	0.42254	0.955473	0.399507
266888351	O	0.313073	0.943046	0.562136
266888351	O	0.393152	0.0880097	0.471092
266888351	O	0.416044	0.0566044	0.355542
266888351	C	0.414216	0.861927	0.380024
266888351	C	0.390344	0.00160738	0.560669
266888351	C	0.406374	0.000208495	0.502626
266888351	H	0.405257	0.064252	0.581558
266888351	H	0.397784	0.909479	0.526595
266888351	O	0.30313	0.93235	0.499129
266888351	H	0.335972	0.0495174	0.483517
266888351	O	0.393275	0.941316	0.427369
266888351	C	0.303303	0.99427	0.542716
266888351	H	0.274048	0.934333	0.474915
266888351	C	0.375338	0.0521598	0.483872
266888351	C	0.324391	0.0188685	0.559464
266888351	C	0.409349	0.0792172	0.586468
266888351	C	0.346592	0.932104	0.463229
266888351	O	0.294675	0.0802538	0.551584
266888351	Fe	0.289013	0.0720693	0.522126
266888351	C	0.302934	0.0293315	0.52805
266888351	Fe	0.355005	0.0742842	0.377832
266888351	H	0.413224	0.991997	0.373194
266888351	Fe	0.325075	0.948057	0.514252
266888351	C	0.30964	0.0451375	0.458069
266888351	H	0.36507	0.970095	0.47825
266888351	C	0.381742	0.971104	0.540576
266888351	C	0.380604	0.954748	0.427267
266888351	O	0.360946	0.912201	0.419533
266888351	H	0.113605	0.850816	0.450633
266888351	C	0.289487	0.924164	0.509933
266888351	F	0.317916	0.971023	0.500287
266888351	O	0.392681	0.950511	0.487746
266888351	C	0.327888	0.935701	0.454302
266888351	H	0.320879	0.0618412	0.588469
266888351	O	0.302068	0.0339391	0.471543
266888351	H	0.338332	0.0723831	0.575049
266888351	H	0.34742	0.0100694	0.384814
266888351	C	0.362851	0.848219	0.540659
266888351	H	0.330929	0.0330227	0.55896
266888351	C	0.342006	0.851691	0.538389
266888351	C	0.308594	0.979816	0.557205
266888351	O	0.365332	0.0516334	0.540874
266888351	O	0.394052	0.0195415	0.356486
266888351	H	0.286644	0.890496	0.561658
266888351	O	0.423592	0.917574	0.581318
266888351	H	0.372888	0.860405	0.542361
266888351	O	0.328562	0.87881	0.478488
266888351	O	0.389788	0.892872	0.393691
266888351	O	0.366429	0.0283753	0.573182
266888351	O	0.404563	0.071892	0.547946
266888351	C	0.310987	0.88595	0.446737
266888351	O	0.365444	0.912916	0.552507
266888351	C	0.349899	0.968941	0.376831
266888351	H	0.330811	0.0347247	0.421616
266888351	O	0.38211	0.968632	0.414559
266888351	H	0.280355	0.876027	0.440873
266888351	Fe	0.390609	0.917872	0.410915
266888351	H	0.393559	0.998964	0.384699
266888351	C	0.29375	0.888062	0.414815
266888351	O	0.302048	0.0623371	0.453549
266888351	C	0.366462	0.0442509	0.410248
266888351	O	0.333551	0.924123	0.528025
266888351	O	0.307952	0.967264	0.413614
266888351	O	0.388669	0.901412	0.517727
266888351	C	0.339198	0.037218	0.434114
266888351	C	0.306975	0.958107	0.551924
266888351	C	0.376556	0.99101	0.548281
266888351	O	0.331848	0.0597639	0.579324
266888351	C	0.399487	0.96155	0.54707
266888351	Fe	0.299897	0.858445	0.369981
266888351	O	0.268982	0.00860275	0.482755
266888351	Fe	0.359585	0.91328	0.523323
266888351	C	0.366263	0.957964	0.530649
266888351	C	0.319897	0.978533	0.359702
266888351	O	0.335235	0.0499761	0.373546
266888351	O	0.317827	0.879704	0.359549
266888351	O	0.368923	0.0619875	0.498761
266888351	O	0.374608	0.979288	0.484651
266888351	O	0.35095	0.0904356	0.352309
266888351	O	0.320096	0.882759	0.541218
266888351	H	0.341883	0.891768	0.446396
266888351	C	0.409524	0.991235	0.564808
266888351	O	0.301796	0.954832	0.534475
266888351	O	0.292737	0.917234	0.527753
266888351	O	0.336832	0.907259	0.568986
266888351	H	0.344713	0.967751	0.418352
266888351	H	0.355578	0.0612702	0.547832
266888351	Fe	0.394358	0.962503	0.388089
266888351	O	0.36804	0.975035	0.378146
266888351	Fe	0.314855	0.913164	0.548564
266888351	O	0.285254	0.0638446	0.494058
266888351	O	0.41926	0.922621	0.403016
266888351	O	0.374087	0.0575212	0.363477
266888351	C	0.36316	0.938392	0.454185
266888351	H	0.283165	0.912325	0.567274
266888351	H	0.392218	0.00662642	0.498931
266888351	F	0.398873	0.900833	0.431515
266888351	Fe	0.277473	0.036795	0.488296
266888351	C	0.421982	0.0122177	0.50887
266888351	O	0.344769	0.94529	0.493645
266888351	O	0.402395	0.0405158	0.519219
266888351	C	0.417372	0.085975	0.553425
266888351	C	0.279492	0.877889	0.400448
266888351	C	0.329715	0.0182142	0.357166
266888351	C	0.371458	0.044446	0.447117
266888351	H	0.273911	0.955014	0.573349
266888351	F	0.417739	0.0300009	0.388236
266888351	O	0.405504	0.0808828	0.507885
266888351	H	0.30984	0.903888	0.392606
266888351	O	0.26835	0.864048	0.406408
266888351	O	0.392264	0.0467042	0.483015
266888351	Fe	0.412737	0.0678629	0.482988
266888351	C	0.330541	0.0412638	0.45296
266888351	C	0.309898	0.0143179	0.543251
266888351	C	0.391748	0.890653	0.375023
266888351	H	0.357215	0.0422258	0.533495
266888351	C	0.326208	0.947785	0.437489
266888351	O	0.29299	0.901604	0.568834
266888351	H	0.294743	0.966899	0.408069
266888351	O	0.345139	0.950213	0.376219
266888351	Fe	0.396923	0.0440708	0.376221
266888351	O	0.404711	0.956077	0.359776
266888351	C	0.338299	0.00873998	0.593034
266888351	C	0.344441	0.957665	0.430883
266888351	H	0.408381	0.861124	0.394379
266888351	C	0.422781	0.0888896	0.574165
266888351	O	0.291137	0.0241779	0.514122
266888351	C	0.31982	0.986001	0.573482
266888351	O	0.264851	0.0440053	0.462193
266888351	C	0.310352	0.898319	0.406803
266888351	C	0.362044	0.951343	0.438432
266888351	Fe	0.363312	0.926422	0.369841
266888351	H	0.3766	0.932369	0.458399
266888351	C	0.348172	0.92938	0.484082
266888351	O	0.282666	0.879501	0.381931
266888351	C	0.414421	0.971439	0.557928
266888351	Fe	0.287837	0.0833598	0.47211
266888351	H	0.414701	0.0729255	0.391331
266888351	Fe	0.386375	0.0672569	0.523735
266888351	C	0.328306	0.892552	0.438191
266888351	O	0.371724	0.9415	0.522607
266888351	O	0.291659	0.944636	0.433902
266888351	C	0.393184	0.951581	0.34553
266888351	H	0.330367	0.919232	0.351272
266888351	Fe	0.19094	0.0920522	0.533659
266888351	C	0.0950906	0.0473961	0.549723
266888351	H	0.098023	0.915535	0.570894
266888351	H	0.379337	0.0944247	0.398954
266888351	H	0.388101	0.0925235	0.37801
266888351	O	0.269738	0.0943315	0.518417
266888351	O	0.193514	0.911647	0.624809
266888351	H	0.203708	0.901386	0.624034
266888351	H	0.194776	0.917448	0.637959
266888351	O	0.236376	0.856418	0.716369
266888351	Fe	0.243521	0.852802	0.74811
266888351	O	0.214956	0.863031	0.757602
266888351	O	0.164912	0.867404	0.698024
266888351	Fe	0.166731	0.895074	0.682948
266888351	O	0.168402	0.923568	0.670357
266888351	O	0.148137	0.920705	0.644952
266888351	O	0.144656	0.867106	0.630914
266888351	C	0.134084	0.879993	0.621395
266888351	O	0.184407	0.883294	0.661958
266888351	Fe	0.141014	0.859662	0.658599
266888351	O	0.143912	0.886806	0.666743
266888351	O	0.151652	0.909396	0.705705
266888351	C	0.138696	0.922621	0.700984
266888351	C	0.185537	0.864801	0.659209
266888351	F	0.18964	0.900477	0.697608
266888351	C	0.218833	0.861025	0.674825
266888351	C	0.206297	0.856871	0.6579
266888351	H	0.217699	0.8746	0.681939
266888351	C	0.108022	0.0688195	0.7105
266888351	O	0.207531	0.952412	0.62463
266888351	O	0.148782	0.00277462	0.749324
266888351	C	0.15346	0.984101	0.746074
266888351	O	0.166529	0.975464	0.756516
266888351	Fe	0.229478	0.0863258	0.690037
266888351	O	0.221304	0.0566768	0.685901
266888351	O	0.240656	0.0799463	0.719192
266888351	H	0.20651	0.0574673	0.684685
266888351	H	0.225485	0.0518866	0.672325
266888351	C	0.16029	0.931271	0.655179
266888351	C	0.179048	0.96271	0.656194
266888351	C	0.153215	0.957046	0.630187
266888351	C	0.184131	0.980201	0.645331
266888351	C	0.176738	0.983316	0.625937
266888351	C	0.163212	0.951482	0.648423
266888351	H	0.140501	0.947857	0.625337
266888351	H	0.187444	0.959832	0.668975
266888351	C	0.134177	0.939779	0.713881
266888351	C	0.142188	0.971702	0.73082
266888351	C	0.148203	0.953038	0.722579
266888351	H	0.162986	0.947746	0.724575
266888351	H	0.21592	0.945491	0.63444
266888351	O	0.206941	0.00691994	0.639445
266888351	C	0.201656	0.992972	0.650871
266888351	O	0.213163	0.988839	0.667377
266888351	H	0.221479	0.00140485	0.670826
266888351	C	0.208832	0.858711	0.774951
266888351	O	0.126392	0.880332	0.804153
266888351	C	0.140522	0.879313	0.791283
266888351	C	0.198635	0.866816	0.809062
266888351	C	0.160746	0.87588	0.796937
266888351	C	0.195334	0.870341	0.788429
266888351	C	0.175583	0.875699	0.782685
266888351	C	0.183167	0.864126	0.822395
266888351	H	0.170773	0.877187	0.76697
266888351	O	0.168462	0.0222844	0.826146
266888351	O	0.145897	0.0381324	0.801375
266888351	Fe	0.14903	0.0221268	0.775212
266888351	O	0.211372	0.00196273	0.786501
266888351	O	0.198514	0.971488	0.787126
266888351	C	0.213345	0.983532	0.784292
266888351	O	0.169932	0.0434769	0.766781
266888351	Fe	0.190275	0.0138091	0.806061
266888351	O	0.168598	0.00362354	0.788795
266888351	Fe	0.167767	0.973483	0.78674
266888351	O	0.166915	0.942753	0.78363
266888351	O	0.138034	0.972043	0.789107
266888351	H	0.133645	0.966106	0.80209
266888351	O	0.166106	0.970858	0.818577
266888351	O	0.212975	0.0243724	0.823071
266888351	O	0.18889	0.0408093	0.792945
266888351	O	0.193477	0.987564	0.822141
266888351	C	0.182103	0.0508936	0.77957
266888351	H	0.181159	0.938256	0.784785
266888351	H	0.160909	0.938081	0.796445
266888351	C	0.241574	0.961496	0.793923
266888351	C	0.245071	0.983042	0.764184
266888351	C	0.233716	0.97556	0.780535
266888351	H	0.240416	0.996243	0.755696
266888351	H	0.233115	0.956242	0.806749
266888351	C	0.202346	0.0777057	0.79682
266888351	C	0.18739	0.0726612	0.781612
266888351	H	0.207239	0.0664138	0.807613
266888351	C	0.164238	0.96858	0.617002
266888351	O	0.105036	0.0691039	0.691584
266888351	O	0.230954	0.918214	0.608556
266888351	H	0.183436	0.995921	0.616299
266888351	C	0.245083	0.0903427	0.73531
266888351	O	0.253265	0.881778	0.747927
266888351	H	0.172043	0.0359585	0.831007
266888351	H	0.220377	0.0118444	0.824648
266888351	H	0.220911	0.0324447	0.813339
266888351	O	0.135942	0.881118	0.772763
266888351	O	0.122815	0.911581	0.745265
266888351	O	0.25244	0.075881	0.817139
266888351	O	0.125234	0.00506344	0.783456
266888351	H	0.142875	0.0512279	0.796411
266888351	H	0.13329	0.962202	0.778839
266888351	H	0.211616	0.0736506	0.619769
266888351	H	0.133406	0.034192	0.806967
266888351	Fe	0.125383	0.90582	0.65806
266888351	O	0.129356	0.92211	0.684332
266888351	O	0.170822	0.853079	0.660858
266888351	F	0.129941	0.0374029	0.7625
266888351	C	0.121564	0.976071	0.729367
266888351	O	0.120749	0.890737	0.630657
266888351	O	0.111383	0.864595	0.653876
266888351	O	0.252163	0.889091	0.820214
266888351	C	0.177287	0.980723	0.829518
266888351	H	0.115417	0.0101895	0.773925
266888351	H	0.116903	0.990279	0.733848
266888351	H	0.108296	0.939441	0.824383
266888351	C	0.107885	0.962559	0.721244
266888351	C	0.114279	0.944898	0.714479
266888351	O	0.137182	0.852996	0.687292
266888351	C	0.152574	0.853302	0.697852
266888351	O	0.250166	0.850453	0.7767
266888351	O	0.11667	0.0842843	0.717519
266888351	H	0.136673	0.907797	0.743438
266888351	C	0.163729	0.86995	0.816899
266888351	O	0.106245	0.91087	0.78491
266888351	Fe	0.109597	0.889904	0.761753
266888351	H	0.123872	0.923723	0.752247
266888351	C	0.258412	0.0803921	0.751718
266888351	O	0.102104	0.889882	0.670646
266888351	H	0.162203	0.0849092	0.768522
266888351	O	0.237619	0.967279	0.606818
266888351	H	0.152225	0.868937	0.828701
266888351	H	0.10383	0.934134	0.708143
266888351	C	0.217952	0.0872725	0.612801
266888351	C	0.111655	0.85366	0.733773
266888351	O	0.104654	0.927348	0.648098
266888351	C	0.0998878	0.870965	0.667366
266888351	Fe	0.202256	0.930508	0.60315
266888351	O	0.112505	0.872047	0.737865
266888351	H	0.214182	0.86487	0.81437
266888351	C	0.176627	0.0888977	0.773775
266888351	H	0.248859	0.888377	0.834472
266888351	H	0.225218	0.975488	0.60725
266888351	O	0.257529	0.0780025	0.680091
266888351	O	0.140259	0.0844318	0.835624
266888351	H	0.242942	0.899411	0.81641
266888351	H	0.248313	0.976863	0.607
266888351	O	0.216525	0.0924428	0.832219
266888351	C	0.25795	0.0857844	0.772158
266888351	O	0.424007	0.0923061	0.827832
266888351	H	0.246423	0.888857	0.759477
266888351	C	0.0992911	0.862635	0.701014
266888351	O	0.173602	0.940617	0.60004
266888351	O	0.353859	0.0133929	0.762692
266888351	O	0.21968	0.0906439	0.66055
266888351	Fe	0.0971728	0.869069	0.805176
266888351	H	0.0997669	0.878449	0.705357
266888351	H	0.258252	0.88461	0.666388
266888351	C	0.231262	0.84656	0.683076
266888351	H	0.274437	0.895145	0.602682
266888351	C	0.31575	0.846628	0.678529
266888351	H	0.418758	0.964739	0.62304
266888351	C	0.357606	0.902489	0.723587
266888351	O	0.286273	0.883033	0.84409
266888351	F	0.0993199	0.870023	0.832909
266888351	H	0.154227	0.08356	0.8418
266888351	H	0.261203	0.952743	0.625315
266888351	O	0.0964786	0.868159	0.776474
266888351	C	0.184759	0.854735	0.84193
266888351	C	0.360852	0.893014	0.601917
266888351	C	0.170656	0.959082	0.598903
266888351	C	0.104534	0.847838	0.714204
266888351	C	0.266098	0.924961	0.610393
266888351	C	0.417354	0.917931	0.60002
266888351	C	0.246675	0.923487	0.600195
266888351	C	0.397171	0.0900113	0.599952
266888351	O	0.417704	0.0643496	0.679249
266888351	C	0.290599	0.854531	0.775271
266888351	H	0.285865	0.85432	0.628835
266888351	O	0.426939	0.951927	0.724306
266888351	Fe	0.352361	0.0476617	0.59707
266888351	C	0.305244	0.0211432	0.692041
266888351	Fe	0.376853	0.0510195	0.639524
266888351	C	0.309	0.860246	0.781434
266888351	H	0.361536	0.956408	0.707368
266888351	C	0.138498	0.881422	0.599931
266888351	H	0.274367	0.0636419	0.730686
266888351	H	0.12699	0.0181235	0.599263
266888351	O	0.348306	0.869695	0.632887
266888351	O	0.42718	0.92518	0.614848
266888351	H	0.246118	0.886328	0.735893
266888351	H	0.170972	0.0893261	0.635852
266888351	O	0.355913	0.00196628	0.596321
266888351	C	0.341396	0.936944	0.741862
266888351	H	0.345425	0.886964	0.601217
266888351	F	0.329311	0.998405	0.789231
266888351	H	0.366626	0.887718	0.816542
266888351	O	0.304777	0.042192	0.733796
266888351	O	0.381343	0.0253302	0.655338
266888351	O	0.378311	0.0681112	0.66548
266888351	H	0.374997	0.0576454	0.67487
266888351	O	0.264771	0.920086	0.84252
266888351	H	0.415065	0.0365516	0.799147
266888351	O	0.33477	0.987221	0.704356
266888351	O	0.296093	0.989239	0.764167
266888351	C	0.302713	0.0721313	0.65657
266888351	H	0.296672	0.922984	0.647053
266888351	C	0.281346	0.985921	0.752097
266888351	C	0.397729	0.909632	0.603729
266888351	H	0.40515	0.0542711	0.618759
266888351	H	0.399729	0.0394931	0.8143
266888351	O	0.349367	0.935192	0.650426
266888351	H	0.32113	0.0239697	0.656152
266888351	O	0.353802	0.0119989	0.717683
266888351	O	0.309027	0.0294062	0.765074
266888351	H	0.408308	0.0668072	0.637699
266888351	C	0.260567	0.953107	0.789702
266888351	Fe	0.279862	0.902501	0.822026
266888351	O	0.392737	0.0810001	0.802569
266888351	C	0.382737	0.992575	0.667729
266888351	C	0.264464	0.975261	0.761446
266888351	C	0.270821	0.0762796	0.787062
266888351	C	0.420504	0.0384502	0.728851
266888351	O	0.415949	0.998744	0.810249
266888351	F	0.309333	0.96654	0.842412
266888351	O	0.421005	0.933286	0.763622
266888351	C	0.369855	0.986582	0.699931
266888351	O	0.397156	0.890155	0.738774
266888351	H	0.397064	0.919039	0.661157
266888351	O	0.319626	0.0053481	0.735541
266888351	H	0.284882	0.953146	0.769049
266888351	O	0.271217	0.883994	0.659068
266888351	C	0.285591	0.0635257	0.780178
266888351	C	0.352045	0.994782	0.708862
266888351	C	0.279736	0.91038	0.607435
266888351	H	0.414062	0.0761395	0.686903
266888351	O	0.307409	0.928002	0.656073
266888351	C	0.329725	0.901677	0.700713
266888351	C	0.391749	0.970751	0.804679
266888351	H	0.336293	0.848577	0.793369
266888351	H	0.390237	0.017935	0.744983
266888351	H	0.276361	0.918086	0.682467
266888351	O	0.318926	0.962503	0.732509
266888351	C	0.396675	0.93762	0.788437
266888351	C	0.359707	0.883501	0.637909
266888351	C	0.37458	0.0418041	0.759801
266888351	H	0.413002	0.954247	0.721726
266888351	C	0.3707	0.914543	0.734169
266888351	O	0.341538	0.0556431	0.713161
266888351	Fe	0.294876	0.885186	0.679857
266888351	O	0.35723	0.893004	0.653742
266888351	O	0.305682	0.913341	0.825896
266888351	C	0.305593	0.935129	0.609145
266888351	C	0.28601	0.0574906	0.760336
266888351	C	0.334101	0.0566864	0.638013
266888351	O	0.307988	0.881068	0.617664
266888351	H	0.364681	0.890423	0.714493
266888351	O	0.336297	0.0636136	0.619917
266888351	H	0.356798	0.0553632	0.712028
266888351	H	0.27022	0.868107	0.701954
266888351	H	0.272707	0.896729	0.652252
266888351	O	0.404155	0.920116	0.730999
266888351	O	0.286027	0.981243	0.629991
266888351	C	0.375008	0.0619945	0.764702
266888351	H	0.407651	0.0541526	0.679719
266888351	O	0.413685	0.0410284	0.812794
266888351	O	0.34726	0.918822	0.817101
266888351	C	0.275571	0.0848132	0.679954
266888351	C	0.329399	0.923048	0.731007
266888351	O	0.283612	0.0880162	0.819572
266888351	O	0.270506	0.921738	0.800957
266888351	O	0.381697	0.926141	0.691747
266888351	O	0.370855	0.000317157	0.636077
266888351	C	0.370995	0.891892	0.62077
266888351	H	0.417087	0.0755517	0.74262
266888351	O	0.294198	0.968189	0.696519
266888351	O	0.299024	0.855137	0.678207
266888351	Fe	0.318511	0.863503	0.640111
266888351	C	0.308484	0.878456	0.793186
266888351	O	0.274693	0.882181	0.703208
266888351	C	0.40229	0.957226	0.792599
266888351	H	0.304738	0.0876786	0.651748
266888351	O	0.33926	0.97266	0.756467
266888351	C	0.371904	0.964879	0.809413
266888351	O	0.29368	0.0108113	0.701787
266888351	H	0.138142	0.980558	0.843954
266888351	Fe	0.325071	0.00181074	0.762553
266888351	Fe	0.332302	0.909388	0.655157
266888351	C	0.300667	0.0421323	0.752573
266888351	H	0.397235	0.0674232	0.798726
266888351	O	0.323023	0.0224821	0.697389
266888351	H	0.416583	0.963116	0.789311
266888351	H	0.418309	0.0166755	0.61464
266888351	H	0.279056	0.0511097	0.695551
266888351	H	0.321394	0.939381	0.608773
266888351	Fe	0.382635	0.0111377	0.611489
266888351	C	0.391062	0.0330776	0.750481
266888351	C	0.299979	0.914945	0.608047
266888351	H	0.347235	0.938851	0.636888
266888351	C	0.389598	0.901225	0.621342
266888351	C	0.291535	0.949018	0.615973
266888351	C	0.33851	0.906844	0.719977
266888351	H	0.338734	0.0672221	0.721193
266888351	C	0.403082	0.986441	0.816771
266888351	Fe	0.307599	0.941262	0.834555
266888351	C	0.311085	0.0369662	0.659508
266888351	Fe	0.330853	0.0293736	0.725627
266888351	O	0.341179	0.0401359	0.751688
266888351	H	0.309166	0.85223	0.715827
266888351	O	0.408526	0.0163087	0.625856
266888351	C	0.38452	0.972194	0.664427
266888351	C	0.32155	0.845372	0.787953
266888351	H	0.281704	0.866434	0.77013
266888351	H	0.366033	0.0758671	0.664575
266888351	O	0.347798	0.0475192	0.646582
266888351	O	0.356757	0.880117	0.824747
266888351	C	0.362723	0.931979	0.743311
266888351	O	0.317063	0.887461	0.700025
266888351	C	0.314086	0.0552708	0.650128
266888351	O	0.282462	0.986596	0.733751
266888351	C	0.345799	0.937403	0.811655
266888351	Fe	0.329527	0.895768	0.825403
266888351	C	0.287863	0.0508461	0.681925
266888351	H	0.293233	0.954498	0.70339
266888351	H	0.390901	0.0802686	0.817101
266888351	C	0.386109	0.938237	0.67772
266888351	O	0.328988	0.906221	0.625586
266888351	O	0.283554	0.948172	0.816244
266888351	H	0.319184	0.987427	0.627027
266888351	C	0.271513	0.942881	0.619614
266888351	C	0.379368	0.0804863	0.605741
266888351	C	0.409793	0.92471	0.77682
266888351	H	0.373093	0.943126	0.750844
266888351	C	0.370455	0.966393	0.696799
266888351	C	0.380295	0.959155	0.679917
266888351	F	0.397458	0.865823	0.769796
266888351	O	0.314681	0.870078	0.835894
266888351	C	0.299226	0.0353156	0.676268
266888351	H	0.36381	0.0677697	0.774386
266888351	O	0.332682	0.0247559	0.601793
266888351	O	0.290822	0.914869	0.683819
266888351	H	0.352649	0.868671	0.816511
266888351	C	0.33295	0.958935	0.744337
266888351	C	0.391364	0.907795	0.735984
266888351	H	0.313872	0.926759	0.727682
266888351	O	0.396809	0.933125	0.661192
266888351	H	0.398165	0.901731	0.635292
266888351	H	0.282823	0.881757	0.715297
266888351	C	0.364189	0.946634	0.802347
266888351	H	0.377934	0.0156643	0.689278
266888351	C	0.291066	0.0701926	0.673754
266888351	C	0.273126	0.0671379	0.745865
266888351	O	0.374183	0.0783354	0.623768
266888351	O	0.333895	0.912628	0.685732
266888351	H	0.388477	0.96744	0.649086
266888351	H	0.363179	0.973539	0.819469
266888351	O	0.371328	0.036612	0.616369
266888351	O	0.405648	0.0536716	0.633004
266888351	C	0.406687	0.0655932	0.747894
266888351	C	0.270951	0.959756	0.772929
266888351	C	0.268656	0.0803671	0.809172
266888351	C	0.377159	0.00685678	0.652551
266888351	H	0.362182	0.928219	0.64828
266888351	O	0.318229	0.973815	0.620865
266888351	O	0.328463	0.847214	0.664041
266888351	C	0.406668	0.0455987	0.743933
266888351	C	0.298308	0.969218	0.622226
266888351	Fe	0.307616	0.987606	0.718095
266888351	O	0.324491	0.887926	0.79727
266888351	H	0.310882	0.942127	0.652683
266888351	F	0.392807	0.985948	0.605551
266888351	O	0.28962	0.855144	0.642643
266888351	C	0.39105	0.0743824	0.758928
266888351	C	0.37935	0.999496	0.686941
266888351	C	0.376758	0.933554	0.791776
266888351	C	0.355669	0.0316495	0.759302
266888351	O	0.315491	0.886684	0.658335
266888351	H	0.295323	0.0551449	0.790162
266888351	C	0.313708	0.899329	0.616634
266888351	O	0.40702	0.905798	0.777056
266888351	O	0.401511	0.984342	0.835154
266888351	Fe	0.418124	0.881537	0.759982
266888351	O	0.328934	0.946859	0.812836
266888351	H	0.280487	0.971754	0.696391
266888351	C	0.272198	0.940366	0.802584
266888351	O	0.291096	0.884625	0.799697
266888351	H	0.370507	0.919803	0.785379
266888351	H	0.112787	0.939146	0.644584
266888351	H	0.154101	0.9077	0.604771
266888351	C	0.297587	0.868248	0.843363
266888351	H	0.142726	0.0902774	0.821843
266888351	O	0.426887	0.0204549	0.729153
266888351	H	0.0982284	0.93097	0.660839
266888351	C	0.095402	0.0559722	0.724165
266888351	O	0.427341	0.0516035	0.717157
266888351	C	0.165588	0.868452	0.892443
266888351	O	0.182967	0.867422	0.899409
266888351	O	0.220099	0.883938	0.88411
266888351	H	0.231592	0.882416	0.893193
266888351	H	0.22722	0.884746	0.872151
266888351	C	0.139224	0.865349	0.917078
266888351	C	0.148351	0.876216	0.903229
266888351	C	0.138799	0.893697	0.896764
266888351	H	0.145887	0.902595	0.884492
266888351	C	0.242159	0.053371	0.934312
266888351	O	0.206107	0.00623591	0.92106
266888351	O	0.187862	0.0477032	0.933195
266888351	C	0.191366	0.0660527	0.931582
266888351	H	0.19695	0.99523	0.925364
266888351	O	0.127702	0.969454	0.912609
266888351	C	0.141105	0.998661	0.869909
266888351	O	0.210439	0.889519	0.966156
266888351	O	0.240243	0.894928	0.97142
266888351	C	0.228154	0.884099	0.964589
266888351	Fe	0.244674	0.894937	0.999394
266888351	C	0.249166	0.882098	0.0373687
266888351	O	0.23086	0.885212	0.0420276
266888351	Fe	0.207839	0.917851	0.980307
266888351	O	0.222052	0.909691	0.00486444
266888351	Fe	0.210871	0.906637	0.0302006
266888351	O	0.226496	0.86903	0.00614284
266888351	O	0.195165	0.905142	0.0561743
266888351	O	0.198303	0.883944	0.0190491
266888351	C	0.207775	0.868379	0.0130504
266888351	O	0.188467	0.927426	0.0218736
266888351	O	0.194063	0.928892	0.954706
266888351	O	0.23431	0.928933	0.969904
266888351	O	0.180134	0.908721	0.98955
266888351	H	0.168821	0.915125	0.982869
266888351	H	0.202134	0.925209	0.94316
266888351	H	0.196568	0.943672	0.955942
266888351	H	0.189198	0.919763	0.0571849
266888351	C	0.125968	0.91688	0.064626
266888351	C	0.236017	0.865672	0.956765
266888351	H	0.243157	0.885006	0.0754347
266888351	H	0.176597	0.921676	0.0266064
266888351	H	0.179326	0.893807	0.987682
266888351	O	0.192213	0.0601451	0.00444796
266888351	O	0.196141	0.0819593	0.980246
266888351	C	0.189454	0.0768112	0.996985
266888351	Fe	0.219826	0.070987	0.966367
266888351	O	0.228648	0.0401695	0.931282
266888351	O	0.208954	0.00527806	0.987157
266888351	O	0.225819	0.00873215	0.959299
266888351	C	0.224676	0.00177009	0.977114
266888351	O	0.236668	0.0673463	0.992065
266888351	Fe	0.201816	0.0328023	0.994153
266888351	O	0.208919	0.0438498	0.968708
266888351	Fe	0.206962	0.0269574	0.945475
266888351	O	0.182064	0.0107096	0.955372
266888351	O	0.195783	0.0203064	0.0233472
266888351	O	0.232224	0.0368468	0.00164675
266888351	O	0.173411	0.0237031	0.984385
266888351	C	0.244055	0.0507309	0.996159
266888351	C	0.169068	0.0134069	0.969075
266888351	H	0.201151	0.0061423	0.0217833
266888351	H	0.181138	0.0189177	0.0246321
266888351	H	0.218831	0.999415	0.919625
266888351	C	0.114626	0.0281418	0.0739074
266888351	O	0.121111	0.0112053	0.0685579
266888351	Fe	0.115986	0.999231	0.0411874
266888351	O	0.144016	0.98766	0.0447376
266888351	O	0.128593	0.0248948	0.0287587
266888351	H	0.120554	0.0290043	0.0171989
266888351	H	0.14317	0.975594	0.052865
266888351	H	0.152195	0.996866	0.0515463
266888351	C	0.122717	0.964371	0.930351
266888351	O	0.202183	0.946418	0.991678
266888351	O	0.226621	0.930701	0.042296
266888351	H	0.224356	0.929685	0.0557044
266888351	H	0.184489	0.896328	0.0523542
266888351	O	0.234412	0.071014	0.0435983
266888351	H	0.248099	0.066018	0.0458446
266888351	H	0.225368	0.060532	0.0404133
266888351	C	0.145618	0.989068	0.949991
266888351	C	0.134611	0.00403745	0.980822
266888351	C	0.12766	0.978519	0.947785
266888351	C	0.149507	0.00184656	0.966514
266888351	H	0.137093	0.0147597	0.992071
266888351	H	0.156547	0.988927	0.937511
266888351	C	0.239087	0.987998	0.985367
266888351	H	0.227117	0.964508	0.966968
266888351	H	0.141793	0.02199	0.0229979
266888351	H	0.213912	0.947869	0.00184958
266888351	H	0.219133	0.942304	0.0381327
266888351	C	0.127921	0.045671	0.0734275
266888351	C	0.249992	0.933666	0.980414
266888351	H	0.250055	0.00726079	0.00801783
266888351	C	0.132271	0.0816672	0.0685816
266888351	C	0.153257	0.0116003	0.881267
266888351	C	0.185709	0.0289056	0.883179
266888351	O	0.177414	0.0424513	0.893354
266888351	O	0.20498	0.0306449	0.878064
266888351	C	0.173692	0.0124776	0.875887
266888351	H	0.146922	0.0214629	0.891835
266888351	C	0.181964	0.999615	0.861919
266888351	C	0.23825	0.968554	0.97821
266888351	O	0.160891	0.858996	0.877428
266888351	O	0.229295	0.0843457	0.871783
266888351	O	0.243722	0.0615742	0.951191
266888351	O	0.203385	0.076672	0.941836
266888351	O	0.139278	0.881443	0.992215
266888351	C	0.107427	0.882332	0.911559
266888351	O	0.143568	0.950301	0.872826
266888351	C	0.251948	0.993077	0.000710229
266888351	Fe	0.206704	0.856472	0.883381
266888351	C	0.116888	0.992979	0.980293
266888351	H	0.21065	0.0430918	0.883141
266888351	O	0.115109	0.987813	0.0137622
266888351	C	0.114189	0.980165	0.964623
266888351	H	0.119993	0.948089	0.0725424
266888351	Fe	0.116166	0.955826	0.887212
266888351	C	0.118315	0.935887	0.0618398
266888351	O	0.11319	0.977906	0.868264
266888351	O	0.156171	0.917188	0.0848412
266888351	O	0.151925	0.866026	0.0738402
266888351	O	0.122041	0.93122	0.903309
266888351	H	0.123553	0.886037	0.0545472
266888351	C	0.17215	0.856239	0.0453546
266888351	O	0.109833	0.95024	0.934403
266888351	O	0.123843	0.869322	0.955042
266888351	C	0.168465	0.858008	0.0670979
266888351	C	0.120345	0.901336	0.0512491
266888351	C	0.240495	0.930697	0.877284
266888351	C	0.119146	0.868427	0.921942
266888351	C	0.104787	0.990852	0.998356
266888351	C	0.118028	0.897055	0.902033
266888351	C	0.1194	0.993484	0.875822
266888351	C	0.210664	0.943026	0.893612
266888351	C	0.138504	0.91181	0.0821397
266888351	C	0.23225	0.938823	0.894232
266888351	H	0.141988	0.937105	0.865749
266888351	C	0.146836	0.864891	0.996916
266888351	O	0.183631	0.853825	0.0778971
266888351	O	0.202555	0.953189	0.908691
266888351	O	0.120826	0.910617	0.967671
266888351	C	0.112372	0.863427	0.941351
266888351	C	0.10979	0.917046	0.902241
266888351	O	0.10462	0.975301	0.0538314
266888351	H	0.152345	0.948416	0.884077
266888351	Fe	0.1116	0.883073	0.977588
266888351	C	0.185009	0.0767342	0.91443
266888351	H	0.147075	0.873924	0.0380158
266888351	Fe	0.222285	0.0796778	0.0703895
266888351	C	0.107171	0.889942	0.0191465
266888351	O	0.113341	0.871627	0.0229722
266888351	H	0.189338	0.956931	0.904716
266888351	C	0.159426	0.865359	0.0320007
266888351	C	0.162787	0.861941	0.011089
266888351	H	0.231621	0.925662	0.865009
266888351	H	0.154056	0.0836567	0.921763
266888351	C	0.148985	0.043031	0.0722088
266888351	O	0.200491	0.936597	0.878683
266888351	H	0.197696	0.999386	0.859712
266888351	O	0.193992	0.864171	0.855748
266888351	C	0.119929	0.0653583	0.073251
266888351	H	0.109762	0.915768	0.958806
266888351	C	0.110049	0.905499	0.034313
266888351	C	0.16628	0.084618	0.91043
266888351	C	0.106578	0.940333	0.0453458
266888351	O	0.108112	0.999632	0.890316
266888351	C	0.246554	0.895712	0.0872987
266888351	C	0.244642	0.945282	0.910193
266888351	H	0.238793	0.955513	0.92112
266888351	H	0.132952	0.90697	0.960668
266888351	C	0.200754	0.0803177	0.901326
266888351	O	0.101234	0.856756	0.986599
266888351	O	0.19473	0.0688711	0.0629583
266888351	C	0.160786	0.0596844	0.0693405
266888351	C	0.152471	0.0781857	0.065754
266888351	C	0.1834	0.0589637	0.0743218
266888351	O	0.231201	0.0530915	0.0831526
266888351	H	0.196575	0.0837117	0.0330802
266888351	H	0.214892	0.0746157	0.905296
266888351	C	0.148644	0.98865	0.853056
266888351	H	0.14813	0.853942	0.92415
266888351	C	0.19528	0.85048	0.0170962
266888351	C	0.1022	0.925121	0.0314914
266888351	C	0.250503	0.996394	0.0842434
266888351	H	0.156875	0.0288467	0.0753643
266888351	C	0.224238	0.850214	0.950008
266888351	H	0.253512	0.0801774	0.902988
266888351	H	0.104344	0.0676275	0.0783474
266888351	C	0.179653	0.0922282	0.00875275
266888351	H	0.252517	0.985568	0.939066
266888351	O	0.101442	0.895869	0.00254133
266888351	C	0.0979755	0.961244	0.0433116
266888351	C	0.179523	0.851639	0.00427087
266888351	O	0.101744	0.0531709	0.0374466
266888351	C	0.248601	0.0170198	0.088997
266888351	C	0.231963	0.91039	0.0926351
266888351	H	0.208383	0.850344	0.951891
266888351	H	0.259047	0.0276847	0.0826226
266888351	C	0.257839	0.052812	0.919635
266888351	Fe	0.427651	0.863778	0.077143
266888351	O	0.425798	0.875906	0.0141197
266888351	C	0.211195	0.903552	0.092277
266888351	C	0.391261	0.846822	0.0555763
266888351	C	0.169697	0.987763	0.848848
266888351	O	0.220086	0.849325	0.909747
266888351	C	0.425563	0.093005	0.878149
266888351	H	0.237735	0.967082	0.0913586
266888351	C	0.242285	0.84558	0.038074
266888351	O	0.296692	0.845846	0.0539144
266888351	H	0.102372	0.969848	0.963882
266888351	C	0.186204	0.0944364	0.0276712
266888351	H	0.234351	0.0460061	0.855055
266888351	C	0.190214	0.848739	0.0379903
266888351	O	0.188714	0.0524074	0.0905613
266888351	O	0.100078	0.943064	0.866101
266888351	O	0.423134	0.846744	0.924501
266888351	O	0.20857	0.885489	0.0875696
266888351	Fe	0.425309	0.978376	0.852697
266888351	H	0.391927	0.851685	0.935501
266888351	H	0.21428	0.0566672	0.847906
266888351	O	0.336639	0.0935684	0.0455445
266888351	H	0.425453	0.896195	0.844756
266888351	O	0.425375	0.916718	0.0308099
266888351	H	0.161229	0.0909497	0.0639757
266888351	O	0.0996892	0.0858619	0.847158
266888351	H	0.23109	0.847244	0.048669
266888351	O	0.0963677	0.0300185	0.0753966
266888351	C	0.252493	0.954616	0.984942
266888351	C	0.256004	0.861273	0.035116
266888351	O	0.402529	0.919531	0.0538167
266888351	C	0.2571	0.863245	0.954814
266888351	O	0.255404	0.896093	0.0265657
266888351	Fe	0.324282	0.847346	0.979326
266888351	O	0.411094	0.996914	0.872925
266888351	O	0.40322	0.845885	0.070578
266888351	O	0.296116	0.0412215	0.0909238
266888351	H	0.26123	0.861343	0.856592
266888351	C	0.327322	0.992777	0.0929636
266888351	H	0.266927	0.0203618	0.980543
266888351	O	0.336134	0.976858	0.0873289
266888351	H	0.17971	0.847058	0.988357
266888351	C	0.417806	0.872439	0.972378
266888351	H	0.357132	0.90078	0.0598834
266888351	O	0.29296	0.0123225	0.950108
266888351	O	0.267942	0.93134	0.0613321
266888351	H	0.305386	0.0742371	0.0878776
266888351	O	0.392608	0.877834	0.908803
266888351	H	0.267496	0.924116	0.073703
266888351	O	0.248932	0.0934748	0.0754707
266888351	H	0.39057	0.0409456	0.0795396
266888351	C	0.278457	0.0661514	0.996098
266888351	C	0.277979	0.979235	0.0247136
266888351	H	0.320505	0.889769	0.0662902
266888351	O	0.383782	0.86315	0.048389
266888351	C	0.361087	0.0443215	0.902861
266888351	C	0.297819	0.0681093	0.987416
266888351	C	0.276313	0.0617487	0.889017
266888351	O	0.327231	0.00503829	0.034831
266888351	C	0.416596	0.98383	0.0890414
266888351	O	0.138065	0.849561	0.991571
266888351	H	0.348881	0.951078	0.880283
266888351	C	0.273529	0.874314	0.0938167
266888351	C	0.198249	0.0932836	0.884805
266888351	O	0.310652	0.971595	0.0571479
266888351	H	0.392324	0.0523813	0.862491
266888351	C	0.33686	0.919014	0.862239
266888351	C	0.390978	0.895929	0.903356
266888351	C	0.371841	0.055617	0.888306
266888351	C	0.290146	0.849426	0.851672
266888351	O	0.257539	0.920992	0.992586
266888351	Fe	0.304871	0.000391927	0.0545733
266888351	C	0.383118	0.871503	0.9809
266888351	C	0.267358	0.0350168	0.919828
266888351	H	0.323068	0.0866742	0.0457655
266888351	O	0.340585	0.949941	0.0337455
266888351	C	0.260832	0.926861	0.87681
266888351	C	0.347344	0.953936	0.989443
266888351	O	0.278263	0.995485	0.915517
266888351	O	0.386507	0.889979	0.0812677
266888351	C	0.365451	0.0768309	0.883359
266888351	O	0.290471	0.876239	0.0865379
266888351	C	0.266464	0.97895	0.00678151
266888351	H	0.259044	0.000710259	0.953922
266888351	C	0.350494	0.0101435	0.91369
266888351	H	0.321379	0.051524	0.97139
266888351	C	0.261498	0.0658814	0.904392
266888351	O	0.301095	0.974188	0.969335
266888351	C	0.413823	0.863572	0.95345
266888351	Fe	0.393625	0.891232	0.0507101
266888351	O	0.357271	0.0869389	0.897294
266888351	O	0.369656	0.0849866	0.864595
266888351	H	0.26836	0.874713	0.95811
266888351	Fe	0.311426	0.854849	0.0785453
266888351	C	0.38225	0.946803	0.995949
266888351	O	0.341598	0.862267	0.960022
266888351	C	0.386679	0.0455025	0.876395
266888351	H	0.387066	0.000473863	0.900522
266888351	H	0.268612	0.922083	0.0497819
266888351	O	0.351554	0.0867102	0.983717
266888351	C	0.363869	0.97477	0.0124399
266888351	H	0.373244	0.992744	0.955217
266888351	C	0.402474	0.875965	0.986671
266888351	C	0.304869	0.0176196	0.96362
266888351	O	0.345841	0.0128327	0.932001
266888351	O	0.280714	0.000785207	0.0701937
266888351	O	0.361966	0.989465	0.96416
266888351	H	0.372378	0.96459	0.0786217
266888351	C	0.358149	0.85529	0.954496
266888351	O	0.302547	0.940775	0.0859932
266888351	O	0.396362	0.890736	0.0184615
266888351	H	0.377457	0.978039	0.0215035
266888351	O	0.278445	0.963299	0.0350893
266888351	O	0.283874	0.956783	0.934404
266888351	C	0.27959	0.0298739	0.904286
266888351	O	0.31963	0.0879147	0.00505486
266888351	H	0.360034	0.867133	0.0834064
266888351	C	0.404213	0.0139268	0.867981
266888351	Fe	0.336788	0.987969	0.946431
266888351	C	0.364629	0.95911	0.999303
266888351	F	0.408962	0.956188	0.858445
266888351	C	0.265328	0.941333	0.908895
266888351	C	0.296807	0.0332077	0.977692
266888351	O	0.324645	0.877009	0.06286
266888351	H	0.356981	0.892668	0.0381347
266888351	C	0.408459	0.881116	0.007297
266888351	O	0.407208	0.000814134	0.0896069
266888351	O	0.271755	0.970005	0.076222
266888351	Fe	0.290436	0.952125	0.0596399
266888351	O	0.381127	0.0355995	0.0896103
266888351	C	0.391493	0.0256553	0.881016
266888351	F	0.298895	0.0279287	0.050187
266888351	O	0.287014	0.994809	0.0301187
266888351	C	0.415467	0.926854	0.0427198
266888351	H	0.35883	0.888507	0.880554
266888351	C	0.356318	0.93869	0.886963
266888351	O	0.321558	0.00832903	0.966535
266888351	O	0.405527	0.0204373	0.850095
266888351	H	0.29428	0.0378301	0.875877
266888351	C	0.280939	0.954248	0.916205
266888351	H	0.262509	0.0236642	0.929631
266888351	O	0.401762	0.860914	0.869849
266888351	C	0.317996	0.965253	0.971793
266888351	H	0.406161	0.893134	0.855479
266888351	H	0.303329	0.919738	0.046952
266888351	H	0.386938	0.860918	0.869853
266888351	O	0.290999	0.964101	0.903471
266888351	C	0.272071	0.929687	0.894404
266888351	C	0.368062	0.856101	0.0923695
266888351	H	0.286968	0.924386	0.894406
266888351	C	0.360336	0.903582	0.887916
266888351	C	0.306478	0.0510693	0.979164
266888351	C	0.330417	0.982024	0.00262456
266888351	C	0.419723	0.947938	0.0455496
266888351	F	0.268549	0.881136	0.993033
266888351	C	0.320858	0.934167	0.0872051
266888351	O	0.381356	0.931304	0.985035
266888351	F	0.322046	0.973701	0.876223
266888351	O	0.260636	0.98635	0.951514
266888351	C	0.394231	0.858148	0.949407
266888351	H	0.285755	0.866605	0.0245108
266888351	O	0.296396	0.851592	0.964034
266888351	O	0.343243	0.995918	0.902874
266888351	C	0.286515	0.00880393	0.904514
266888351	Fe	0.289403	0.985014	0.941446
266888351	O	0.332745	0.93726	0.0728939
266888351	H	0.348424	0.0498398	0.909653
266888351	O	0.333439	0.902305	0.85391
266888351	O	0.306795	0.933617	0.0418166
266888351	H	0.317429	0.993189	0.00259239
266888351	C	0.284796	0.0429544	0.888218
266888351	H	0.409871	0.941398	0.00105872
266888351	H	0.405392	0.948577	0.0746298
266888351	C	0.421585	0.975082	0.0687947
266888351	C	0.274169	0.856496	0.0246044
266888351	C	0.370502	0.924107	0.915872
266888351	C	0.342587	0.995498	0.0344653
266888351	C	0.330538	0.966239	0.989532
266888351	H	0.321135	0.876009	0.0489417
266888351	O	0.350142	0.990142	0.0505307
266888351	C	0.276992	0.0728058	0.870521
266888351	H	0.370716	0.87385	0.990506
266888351	Fe	0.317414	0.979347	0.903024
266888351	O	0.319615	0.00583047	0.0812852
266888351	H	0.36988	0.943548	0.067554
266888351	O	0.400299	0.950903	0.00552541
266888351	C	0.351339	0.92089	0.878803
266888351	C	0.270418	0.848074	0.858789
266888351	C	0.372222	0.906642	0.90549
266888351	C	0.310082	0.0858274	0.989158
266888351	O	0.286005	0.0892298	0.868669
266888351	F	0.324031	0.871282	0.990783
266888351	C	0.382038	0.0154536	0.897122
266888351	H	0.374348	0.925265	0.931919
266888351	O	0.32708	0.961959	0.956238
266888351	C	0.361825	0.94078	0.907197
266888351	C	0.378548	0.861734	0.961821
266888351	C	0.364916	0.0238819	0.905673
266888351	O	0.369474	0.958454	0.0656716
266888351	C	0.267066	0.960677	0.99732
266888351	C	0.346316	0.985229	0.0157729
266888351	O	0.331206	0.954512	0.912879
266888351	O	0.41996	0.88817	0.855475
266888351	C	0.41335	0.956956	0.0632915
266888351	O	0.33114	0.935435	0.853829
266888351	C	0.348978	0.95465	0.917455
266888351	H	0.27959	0.950305	0.000601507
266888351	C	0.276789	0.0326578	0.985573
266888351	C	0.268461	0.988461	0.0764018
266888351	H	0.27093	0.079604	0.00264599
266888351	C	0.272115	0.926949	0.858055
266888351	H	0.359314	0.00102597	0.972633
266888351	O	0.314557	0.985724	0.92983
266888351	O	0.289042	0.935237	0.857817
266888351	O	0.266608	0.0658092	0.856781
266888351	H	0.363682	0.0851359	0.974848
266888351	O	0.302317	0.0033934	0.895189
266888351	H	0.301716	0.934943	0.0282205
266888351	O	0.363944	0.901437	0.0472291
266888351	C	0.267624	0.0490437	0.99498
266888351	O	0.420624	0.880607	0.0544131
266888351	O	0.35485	0.969296	0.928574
266888351	H	0.34746	0.936938	0.0366423
266888351	O	0.404009	0.904238	0.893271
266888351	Fe	0.339127	0.964302	0.0612303
266888351	Fe	0.411421	0.855128	0.897959
266888351	H	0.34759	0.941844	0.979079
266888351	O	0.231506	0.8459	0.867742
266888351	Fe	0.241947	0.0810808	0.844901
266888351	O	0.131686	0.0931241	0.87648
266888351	O	0.131375	0.899228	0.0942382
266888351	C	0.237526	0.984109	0.0939606
266888351	O	0.210708	0.0887938	0.0944274
266888351	O	0.227957	0.0538603	0.844809
266888351	O	0.478874	0.24384	0.166551
266888351	O	0.468674	0.234298	0.196282
266888351	C	0.481592	0.241058	0.184849
266888351	Fe	0.456023	0.262353	0.159367
266888351	O	0.458775	0.252132	0.129005
266888351	C	0.452491	0.235522	0.120608
266888351	C	0.461295	0.142129	0.109388
266888351	O	0.545294	0.248559	0.236853
266888351	H	0.558665	0.251369	0.242975
266888351	O	0.575605	0.218165	0.240471
266888351	Fe	0.545502	0.216776	0.238716
266888351	O	0.561972	0.182548	0.266444
266888351	O	0.515168	0.217417	0.237228
266888351	O	0.545897	0.186621	0.239043
266888351	C	0.548395	0.177012	0.254981
266888351	O	0.546032	0.2147	0.208413
266888351	O	0.568593	0.236687	0.200705
266888351	C	0.550696	0.230578	0.200175
266888351	H	0.511472	0.219331	0.223287
266888351	H	0.510322	0.229276	0.244002
266888351	C	0.524102	0.121643	0.222221
266888351	O	0.535993	0.128734	0.209098
266888351	O	0.560405	0.127653	0.174331
266888351	C	0.573202	0.120825	0.185921
266888351	Fe	0.531378	0.126812	0.178816
266888351	O	0.534721	0.158088	0.172215
266888351	O	0.502129	0.135189	0.182743
266888351	C	0.488104	0.126262	0.17518
266888351	O	0.525887	0.118645	0.149162
266888351	C	0.537222	0.106362	0.140106
266888351	H	0.539584	0.166261	0.182959
266888351	H	0.521943	0.163332	0.168297
266888351	O	0.470093	0.15427	0.251182
266888351	C	0.480011	0.149462	0.266442
266888351	Fe	0.442745	0.150509	0.240249
266888351	O	0.455637	0.157508	0.21322
266888351	O	0.450707	0.120785	0.235741
266888351	C	0.5164	0.236502	0.189518
266888351	C	0.500538	0.264965	0.206424
266888351	C	0.53462	0.244946	0.194288
266888351	C	0.536619	0.263707	0.202375
266888351	C	0.499684	0.247642	0.194431
266888351	H	0.514913	0.222528	0.181801
266888351	C	0.537401	0.105981	0.117571
266888351	C	0.584733	0.153873	0.200871
266888351	H	0.569717	0.161232	0.200239
266888351	C	0.466951	0.158432	0.169982
266888351	C	0.473918	0.138905	0.163134
266888351	C	0.458772	0.145005	0.130545
266888351	C	0.469315	0.132378	0.143342
266888351	H	0.474916	0.119669	0.136668
266888351	C	0.507583	0.129561	0.253874
266888351	C	0.51614	0.162106	0.267782
266888351	C	0.524866	0.130312	0.242021
266888351	C	0.535866	0.160303	0.259169
266888351	C	0.539163	0.14389	0.246452
266888351	C	0.502156	0.146963	0.26471
266888351	H	0.553113	0.144676	0.237937
266888351	H	0.535257	0.25175	0.247744
266888351	O	0.476536	0.285388	0.155356
266888351	H	0.483609	0.27862	0.144016
266888351	H	0.485427	0.286632	0.166846
266888351	O	0.511569	0.300763	0.23276
266888351	O	0.537702	0.302309	0.212983
266888351	C	0.522365	0.293354	0.21916
266888351	Fe	0.55574	0.322723	0.226458
266888351	Fe	0.508152	0.331013	0.234623
266888351	F	0.574834	0.307336	0.213591
266888351	C	0.51966	0.273657	0.2093
266888351	H	0.486477	0.272224	0.211652
266888351	H	0.551624	0.269552	0.206141
266888351	F	0.483893	0.139731	0.316931
266888351	Fe	0.46293	0.235749	0.306257
266888351	O	0.467541	0.213131	0.286192
266888351	O	0.48283	0.253674	0.290722
266888351	C	0.495184	0.266769	0.297937
266888351	H	0.470224	0.220386	0.274005
266888351	H	0.481193	0.209854	0.289805
266888351	C	0.554438	0.227588	0.278703
266888351	O	0.54339	0.217003	0.268085
266888351	O	0.471374	0.145989	0.282846
266888351	Fe	0.442502	0.149265	0.291793
266888351	O	0.444074	0.179065	0.28363
266888351	O	0.441365	0.119775	0.298796
266888351	F	0.452882	0.155647	0.316626
266888351	C	0.526184	0.247593	0.292139
266888351	C	0.546095	0.247165	0.285126
266888351	C	0.555002	0.265223	0.278794
266888351	C	0.516302	0.265812	0.293461
266888351	H	0.516575	0.234483	0.293158
266888351	H	0.568453	0.265338	0.269177
266888351	H	0.512326	0.17487	0.275205
266888351	C	0.570996	0.149591	0.319915
266888351	O	0.450048	0.278506	0.291056
266888351	O	0.489131	0.280571	0.30942
266888351	O	0.559379	0.302568	0.25168
266888351	O	0.539724	0.316808	0.275179
266888351	C	0.548871	0.301726	0.267863
266888351	C	0.525419	0.283201	0.288201
266888351	C	0.544038	0.282956	0.279071
266888351	H	0.515985	0.296245	0.289325
266888351	H	0.467492	0.149379	0.212228
266888351	H	0.446359	0.151525	0.202222
266888351	H	0.442675	0.185539	0.296897
266888351	O	0.445221	0.214349	0.322242
266888351	C	0.551362	0.143958	0.326304
266888351	O	0.57231	0.222126	0.28284
266888351	H	0.497046	0.11817	0.251956
266888351	C	0.449984	0.163475	0.138061
266888351	O	0.479211	0.142904	0.102495
266888351	O	0.486155	0.226643	0.320804
266888351	H	0.540707	0.137535	0.315416
266888351	O	0.498633	0.328288	0.263593
266888351	C	0.452963	0.170558	0.158319
266888351	H	0.471681	0.164197	0.184447
266888351	C	0.435733	0.104227	0.289119
266888351	O	0.453256	0.272817	0.189908
266888351	O	0.508572	0.110159	0.217527
266888351	O	0.565758	0.133481	0.28855
266888351	O	0.460921	0.31452	0.309496
266888351	O	0.451443	0.200031	0.179226
266888351	Fe	0.460202	0.285589	0.318687
266888351	O	0.459392	0.256803	0.32653
266888351	C	0.578137	0.142046	0.3
266888351	H	0.468677	0.314287	0.29677
266888351	O	0.441047	0.24696	0.286299
266888351	C	0.520793	0.107222	0.104196
266888351	O	0.487971	0.107156	0.176295
266888351	Fe	0.586646	0.203384	0.262159
266888351	C	0.442331	0.264869	0.279733
266888351	C	0.582692	0.160788	0.332956
266888351	H	0.453415	0.251748	0.242368
266888351	H	0.446322	0.31071	0.128349
266888351	O	0.478039	0.325768	0.226539
266888351	H	0.447464	0.319853	0.305893
266888351	O	0.535801	0.336246	0.241452
266888351	Fe	0.440167	0.225706	0.19157
266888351	C	0.443603	0.190235	0.165278
266888351	O	0.529613	0.0986594	0.184806
266888351	C	0.443979	0.266018	0.241518
266888351	O	0.441452	0.209534	0.219217
266888351	C	0.44014	0.276715	0.223891
266888351	C	0.441627	0.267205	0.204413
266888351	O	0.441325	0.223753	0.129808
266888351	O	0.438126	0.2399	0.166212
266888351	H	0.44227	0.174406	0.129045
266888351	C	0.586886	0.327608	0.314243
266888351	O	0.513163	0.33466	0.204481
266888351	H	0.452509	0.198033	0.109949
266888351	O	0.480845	0.101906	0.325803
266888351	C	0.436288	0.108084	0.23358
266888351	H	0.494283	0.335882	0.312461
266888351	C	0.582572	0.321538	0.335163
266888351	O	0.571312	0.102621	0.190728
266888351	O	0.434797	0.282141	0.150781
266888351	O	0.436687	0.179733	0.244905
266888351	H	0.458552	0.180514	0.281064
266888351	H	0.532595	0.336202	0.159221
266888351	C	0.589616	0.134292	0.193778
266888351	H	0.505346	0.109817	0.110024
266888351	C	0.455727	0.229484	0.10052
266888351	O	0.445735	0.140834	0.0987297
266888351	H	0.448583	0.309358	0.181632
266888351	H	0.521872	0.23767	0.33308
266888351	O	0.432066	0.142964	0.266059
266888351	O	0.587013	0.313524	0.300742
266888351	O	0.574061	0.335105	0.266922
266888351	H	0.450298	0.217911	0.228353
266888351	H	0.47728	0.32244	0.212013
266888351	C	0.432884	0.310701	0.119272
266888351	C	0.435657	0.272694	0.259945
266888351	O	0.512935	0.128819	0.340229
266888351	O	0.551811	0.0971773	0.149006
266888351	O	0.431361	0.251425	0.203588
266888351	H	0.473753	0.314167	0.233824
266888351	C	0.522564	0.225542	0.343185
266888351	O	0.588716	0.197285	0.210148
266888351	F	0.59457	0.332946	0.136069
266888351	C	0.436969	0.215803	0.339902
266888351	C	0.432982	0.326985	0.165993
266888351	C	0.586995	0.301775	0.340797
266888351	O	0.434319	0.311628	0.179955
266888351	C	0.585003	0.340667	0.252906
266888351	O	0.448848	0.33372	0.158443
266888351	H	0.590203	0.289873	0.330455
266888351	C	0.487319	0.223161	0.339011
266888351	H	0.569258	0.104862	0.119045
266888351	C	0.452325	0.208544	0.0969883
266888351	Fe	0.593216	0.226041	0.21773
266888351	H	0.706806	0.108024	0.238209
266888351	O	0.450433	0.128247	0.343001
266888351	O	0.757501	0.212872	0.335164
266888351	H	0.604211	0.335475	0.17467
266888351	C	0.501558	0.343097	0.274315
266888351	O	0.433003	0.290201	0.330893
266888351	C	0.428644	0.29344	0.224465
266888351	H	0.75911	0.147511	0.286682
266888351	H	0.462847	0.181563	0.344116
266888351	C	0.617375	0.342176	0.270368
266888351	H	0.500885	0.178041	0.09993
266888351	C	0.55648	0.103932	0.109809
266888351	C	0.72204	0.0952515	0.184402
266888351	O	0.61013	0.23292	0.193005
266888351	O	0.428017	0.198106	0.157573
266888351	H	0.738097	0.154762	0.148022
266888351	H	0.631614	0.165497	0.217735
266888351	H	0.752111	0.128924	0.2733
266888351	O	0.596972	0.145288	0.294246
266888351	C	0.649737	0.103861	0.339342
266888351	H	0.596119	0.167132	0.327608
266888351	H	0.598303	0.140725	0.280124
266888351	O	0.751048	0.159589	0.143859
266888351	H	0.723857	0.339134	0.316071
266888351	H	0.662871	0.338483	0.18211
266888351	Fe	0.734971	0.311352	0.148062
266888351	O	0.716536	0.113811	0.183879
266888351	F	0.612087	0.227525	0.3316
266888351	O	0.676242	0.112121	0.160048
266888351	Fe	0.544257	0.344321	0.268089
266888351	O	0.742872	0.119464	0.134849
266888351	Fe	0.48198	0.127563	0.341768
266888351	O	0.666923	0.293318	0.315609
266888351	O	0.698142	0.192028	0.294791
266888351	O	0.70083	0.266382	0.214664
266888351	H	0.760736	0.117974	0.338278
266888351	O	0.611337	0.222394	0.26204
266888351	H	0.681358	0.152827	0.162569
266888351	O	0.623423	0.299967	0.320618
266888351	O	0.708386	0.308382	0.160459
266888351	H	0.612027	0.111956	0.188661
266888351	O	0.598181	0.255393	0.228376
266888351	O	0.695454	0.101186	0.244724
266888351	O	0.690909	0.188739	0.337691
266888351	H	0.687066	0.307964	0.131281
266888351	H	0.659144	0.1281	0.25963
266888351	O	0.70343	0.334254	0.179556
266888351	C	0.652433	0.242497	0.231452
266888351	O	0.645047	0.327013	0.299498
266888351	H	0.645429	0.240897	0.218306
266888351	C	0.667798	0.111368	0.344384
266888351	C	0.683693	0.298767	0.308284
266888351	C	0.711723	0.098676	0.142995
266888351	H	0.758094	0.15563	0.155133
266888351	H	0.722208	0.302167	0.29477
266888351	H	0.428177	0.209925	0.225053
266888351	H	0.719415	0.313616	0.113097
266888351	H	0.703195	0.272062	0.201655
266888351	O	0.672056	0.257332	0.197028
266888351	H	0.696405	0.260609	0.251743
266888351	Fe	0.688123	0.210131	0.317189
266888351	O	0.747452	0.29661	0.172117
266888351	C	0.595634	0.182977	0.221262
266888351	H	0.616789	0.325816	0.272727
266888351	O	0.740222	0.339079	0.160459
266888351	H	0.73091	0.156932	0.21752
266888351	H	0.737278	0.275154	0.144285
266888351	C	0.676291	0.318371	0.137503
266888351	C	0.701818	0.312679	0.231075
266888351	C	0.685183	0.243332	0.285373
266888351	C	0.701292	0.286781	0.339193
266888351	F	0.740803	0.247662	0.278003
266888351	O	0.721185	0.323191	0.123825
266888351	Fe	0.727635	0.235732	0.298934
266888351	H	0.653343	0.21048	0.308744
266888351	C	0.747516	0.255096	0.335463
266888351	H	0.585877	0.265027	0.228364
266888351	H	0.659781	0.188645	0.301575
266888351	C	0.737631	0.30009	0.323136
266888351	H	0.711051	0.113706	0.146428
266888351	O	0.715145	0.221201	0.321172
266888351	H	0.74387	0.197277	0.262669
266888351	O	0.717378	0.215114	0.280471
266888351	C	0.72291	0.31762	0.226409
266888351	C	0.665766	0.331116	0.124973
266888351	Fe	0.686515	0.343066	0.312095
266888351	F	0.598053	0.188546	0.282647
266888351	C	0.758609	0.307258	0.183026
266888351	O	0.598591	0.183661	0.240065
266888351	O	0.753235	0.115705	0.325995
266888351	C	0.753905	0.10545	0.196701
266888351	C	0.643099	0.235852	0.249037
266888351	H	0.603183	0.244051	0.186674
266888351	C	0.696822	0.320618	0.168246
266888351	Fe	0.687656	0.124745	0.186476
266888351	Fe	0.669905	0.108729	0.230037
266888351	H	0.646215	0.232301	0.279236
266888351	C	0.747681	0.100863	0.137332
266888351	O	0.690144	0.304759	0.216734
266888351	H	0.750353	0.121047	0.193107
266888351	O	0.679456	0.22874	0.294902
266888351	C	0.756867	0.308561	0.316839
266888351	C	0.735415	0.327198	0.239492
266888351	C	0.706031	0.162374	0.236281
266888351	O	0.684545	0.315488	0.298617
266888351	H	0.623643	0.298912	0.305991
266888351	O	0.658665	0.136417	0.192498
266888351	C	0.672286	0.24785	0.267974
266888351	H	0.67725	0.301327	0.221744
266888351	C	0.66368	0.337143	0.166419
266888351	Fe	0.648148	0.315907	0.32744
266888351	O	0.677937	0.13868	0.231443
266888351	C	0.700229	0.171617	0.254255
266888351	O	0.577076	0.342524	0.236403
266888351	O	0.655658	0.113918	0.257574
266888351	O	0.713161	0.33437	0.325825
266888351	Fe	0.757688	0.140046	0.120565
266888351	H	0.698966	0.112056	0.337423
266888351	C	0.738752	0.177598	0.239099
266888351	O	0.644717	0.11696	0.216895
266888351	O	0.660043	0.198332	0.313112
266888351	C	0.721152	0.297125	0.310745
266888351	C	0.725502	0.165588	0.228825
266888351	C	0.624523	0.224255	0.247226
266888351	C	0.730978	0.310404	0.208195
266888351	C	0.68084	0.254783	0.25071
266888351	C	0.709146	0.198288	0.280638
266888351	O	0.695273	0.314887	0.249104
266888351	C	0.599878	0.164468	0.211112
266888351	C	0.681333	0.259312	0.213759
266888351	O	0.681848	0.103042	0.203862
266888351	H	0.664621	0.106891	0.267286
266888351	O	0.620097	0.217722	0.229678
266888351	C	0.653124	0.239153	0.266799
266888351	O	0.75481	0.221258	0.302578
266888351	O	0.729268	0.147107	0.106549
266888351	O	0.701013	0.140052	0.208872
266888351	C	0.670213	0.332178	0.103107
266888351	C	0.693716	0.146879	0.224907
266888351	O	0.63227	0.341536	0.337942
266888351	O	0.694513	0.148333	0.168127
266888351	C	0.684556	0.107313	0.332041
266888351	H	0.698013	0.159034	0.176554
266888351	C	0.644118	0.130457	0.203756
266888351	H	0.720841	0.30343	0.197707
266888351	O	0.671517	0.331278	0.334395
266888351	O	0.701543	0.252311	0.290842
266888351	C	0.609445	0.127275	0.194228
266888351	H	0.607667	0.221255	0.184276
266888351	O	0.676646	0.22952	0.337663
266888351	H	0.628154	0.28736	0.325157
266888351	C	0.713472	0.185515	0.263135
266888351	C	0.670718	0.252486	0.232517
266888351	O	0.731291	0.284181	0.134473
266888351	C	0.732855	0.187978	0.255439
266888351	O	0.742563	0.256468	0.317267
266888351	C	0.751088	0.311468	0.203904
266888351	C	0.755935	0.327164	0.236866
266888351	C	0.624873	0.13921	0.201114
266888351	C	0.677834	0.323513	0.157698
266888351	H	0.729878	0.328311	0.253762
266888351	C	0.619643	0.158008	0.209706
266888351	H	0.717021	0.281151	0.133734
266888351	C	0.701968	0.292615	0.319598
266888351	H	0.68617	0.168191	0.26263
266888351	C	0.758139	0.170428	0.239201
266888351	H	0.739835	0.121227	0.329665
266888351	O	0.547331	0.340488	0.202628
266888351	C	0.528887	0.343221	0.197439
266888351	C	0.428645	0.327234	0.106167
266888351	O	0.572137	0.226515	0.34237
266888351	O	0.760482	0.154609	0.248025
266888351	H	0.687203	0.281956	0.344282
266888351	C	0.543955	0.149021	0.344431
266888351	C	0.73593	0.296073	0.343848
266888351	H	0.692523	0.108339	0.0961628
266888351	Fe	0.563964	0.250713	0.388565
266888351	O	0.58311	0.228229	0.382728
266888351	O	0.58117	0.185684	0.380989
266888351	O	0.557191	0.206206	0.407677
266888351	O	0.539349	0.233836	0.393522
266888351	H	0.534545	0.236568	0.406229
266888351	O	0.480187	0.154505	0.357768
266888351	C	0.473726	0.158532	0.374961
266888351	O	0.479406	0.148743	0.390363
266888351	O	0.481824	0.115516	0.367355
266888351	Fe	0.499976	0.125156	0.386367
266888351	O	0.517206	0.135465	0.40803
266888351	O	0.518406	0.143324	0.369094
266888351	O	0.478183	0.264619	0.364285
266888351	H	0.474278	0.268474	0.377759
266888351	C	0.539613	0.219625	0.352504
266888351	C	0.445391	0.177524	0.391705
266888351	C	0.457339	0.174361	0.374929
266888351	C	0.452603	0.18466	0.356851
266888351	H	0.446942	0.166466	0.403724
266888351	C	0.504541	0.200409	0.361462
266888351	C	0.520455	0.19533	0.372403
266888351	C	0.538688	0.20351	0.366051
266888351	Fe	0.510423	0.313129	0.584665
266888351	H	0.552247	0.162302	0.372765
266888351	H	0.554316	0.197283	0.418338
266888351	H	0.529679	0.238377	0.383665
266888351	O	0.545661	0.275082	0.392565
266888351	H	0.551494	0.199367	0.37377
266888351	C	0.485838	0.305619	0.437314
266888351	H	0.484753	0.293375	0.426282
266888351	O	0.53161	0.174347	0.398064
266888351	C	0.517543	0.183094	0.390522
266888351	O	0.499056	0.183056	0.399717
266888351	H	0.501301	0.173562	0.411766
266888351	C	0.537417	0.100503	0.477172
266888351	O	0.52285	0.104887	0.489217
266888351	O	0.546244	0.114131	0.468714
266888351	Fe	0.537569	0.143178	0.46466
266888351	O	0.530811	0.172185	0.4605
266888351	C	0.541521	0.186923	0.467021
266888351	O	0.550996	0.186182	0.483062
266888351	O	0.514505	0.152019	0.529806
266888351	O	0.531443	0.180033	0.522333
266888351	C	0.520133	0.16971	0.533902
266888351	O	0.507194	0.136545	0.461798
266888351	Fe	0.518384	0.130532	0.507397
266888351	O	0.536295	0.147425	0.492635
266888351	Fe	0.55493	0.16673	0.506452
266888351	O	0.566777	0.151613	0.46268
266888351	O	0.579224	0.155234	0.493349
266888351	C	0.580286	0.155521	0.474719
266888351	O	0.559379	0.148313	0.530692
266888351	O	0.501023	0.114834	0.525511
266888351	O	0.492697	0.140424	0.49206
266888351	O	0.542855	0.121353	0.522395
266888351	C	0.491088	0.137773	0.472965
266888351	C	0.554496	0.130503	0.53341
266888351	F	0.539671	0.138413	0.437914
266888351	F	0.482688	0.114803	0.562124
266888351	O	0.457143	0.217858	0.478715
266888351	O	0.492214	0.217207	0.489159
266888351	H	0.489688	0.212015	0.502536
266888351	Fe	0.500429	0.247143	0.496257
266888351	O	0.511014	0.252833	0.469094
266888351	Fe	0.461433	0.245492	0.464937
266888351	O	0.488987	0.243424	0.524241
266888351	O	0.448483	0.233121	0.439476
266888351	O	0.488835	0.236915	0.45108
266888351	C	0.50683	0.242906	0.454083
266888351	F	0.524843	0.236078	0.502501
266888351	C	0.525368	0.213522	0.449361
266888351	C	0.542169	0.243287	0.442444
266888351	C	0.542954	0.205028	0.455057
266888351	C	0.560541	0.233241	0.443067
266888351	C	0.560784	0.214841	0.451792
266888351	C	0.524359	0.232779	0.445345
266888351	H	0.540919	0.258845	0.440361
266888351	H	0.575324	0.208704	0.454673
266888351	H	0.511296	0.205938	0.450532
266888351	C	0.493961	0.178062	0.557872
266888351	C	0.52847	0.178939	0.569296
266888351	C	0.5141	0.177432	0.553346
266888351	H	0.543988	0.174898	0.56729
266888351	H	0.483566	0.172039	0.546901
266888351	C	0.548761	0.113831	0.564193
266888351	C	0.562874	0.118617	0.550018
266888351	H	0.535092	0.12302	0.566652
266888351	C	0.45176	0.139997	0.464423
266888351	C	0.475571	0.119891	0.446048
266888351	C	0.46142	0.116159	0.431809
266888351	C	0.441464	0.122943	0.4339
266888351	C	0.471253	0.132247	0.462571
266888351	H	0.490569	0.113484	0.443049
266888351	H	0.448374	0.148721	0.477886
266888351	C	0.488368	0.249414	0.568198
266888351	H	0.503051	0.24506	0.562585
266888351	H	0.451481	0.21826	0.492324
266888351	H	0.504176	0.211467	0.4843
266888351	O	0.526156	0.316374	0.559974
266888351	O	0.558405	0.313029	0.565327
266888351	C	0.543223	0.313414	0.554096
266888351	O	0.486685	0.316024	0.565345
266888351	O	0.512262	0.275005	0.501238
266888351	C	0.508689	0.293176	0.497799
266888351	O	0.491342	0.298788	0.493768
266888351	O	0.46518	0.272738	0.450196
266888351	O	0.451095	0.289375	0.473763
266888351	C	0.461627	0.289567	0.458259
266888351	O	0.475649	0.257801	0.487754
266888351	Fe	0.465063	0.281572	0.499253
266888351	O	0.453001	0.306687	0.510951
266888351	O	0.477081	0.274008	0.526216
266888351	C	0.479749	0.256852	0.534051
266888351	H	0.444159	0.30228	0.521458
266888351	C	0.536203	0.32147	0.494233
266888351	C	0.557909	0.32435	0.523193
266888351	C	0.525644	0.306084	0.503941
266888351	C	0.544757	0.311698	0.533715
266888351	C	0.529857	0.302229	0.52342
266888351	H	0.520228	0.291527	0.532078
266888351	C	0.454926	0.259012	0.561443
266888351	C	0.473277	0.252648	0.554517
266888351	C	0.47262	0.307296	0.45313
266888351	C	0.437109	0.328144	0.377615
266888351	O	0.510789	0.28364	0.579762
266888351	H	0.464196	0.313317	0.518093
266888351	C	0.523793	0.140189	0.351623
266888351	O	0.500888	0.302609	0.360609
266888351	H	0.489226	0.123623	0.527752
266888351	O	0.442407	0.26504	0.507618
266888351	H	0.511643	0.131374	0.420766
266888351	O	0.503012	0.315111	0.401122
266888351	C	0.436179	0.134802	0.449766
266888351	H	0.527671	0.126345	0.405475
266888351	O	0.455604	0.17425	0.569421
266888351	C	0.575918	0.238832	0.428762
266888351	C	0.571379	0.309562	0.372878
266888351	H	0.489698	0.304145	0.557633
266888351	C	0.552755	0.330881	0.503953
266888351	O	0.570578	0.252775	0.417788
266888351	C	0.556522	0.159366	0.35786
266888351	H	0.443635	0.264715	0.552595
266888351	C	0.500408	0.32003	0.435514
266888351	O	0.573944	0.186621	0.519471
266888351	C	0.510132	0.322882	0.41612
266888351	H	0.566067	0.304264	0.387523
266888351	H	0.57753	0.197805	0.510705
266888351	C	0.487813	0.181784	0.577437
266888351	C	0.472919	0.323107	0.465944
266888351	H	0.533978	0.270328	0.399578
266888351	H	0.490441	0.193862	0.364949
266888351	H	0.441722	0.114055	0.57064
266888351	H	0.541588	0.276249	0.37845
266888351	H	0.586715	0.178827	0.522179
266888351	C	0.580025	0.107487	0.548001
266888351	O	0.530434	0.329123	0.370985
266888351	C	0.582871	0.295533	0.360431
266888351	C	0.565556	0.328935	0.366124
266888351	H	0.532183	0.327017	0.478667
266888351	H	0.461272	0.325494	0.477267
266888351	Fe	0.50094	0.330001	0.374587
266888351	C	0.468788	0.1089	0.411934
266888351	O	0.52439	0.334476	0.414167
266888351	C	0.437336	0.198843	0.355896
266888351	O	0.470957	0.327243	0.379132
266888351	C	0.451183	0.261801	0.581366
266888351	O	0.556739	0.249481	0.359312
266888351	C	0.585257	0.183854	0.362436
266888351	O	0.486593	0.109426	0.407825
266888351	H	0.50963	0.114622	0.538461
266888351	O	0.585967	0.269435	0.385194
266888351	H	0.50541	0.292237	0.369971
266888351	C	0.575663	0.166665	0.35132
266888351	C	0.556743	0.232805	0.350472
266888351	O	0.456909	0.101744	0.398827
266888351	O	0.433581	0.25165	0.478215
266888351	C	0.437569	0.117343	0.351015
266888351	Fe	0.58778	0.207275	0.401721
266888351	C	0.503022	0.333966	0.451016
266888351	H	0.476084	0.310577	0.573308
266888351	O	0.517601	0.100817	0.378147
266888351	H	0.439018	0.237892	0.531827
266888351	H	0.569529	0.332081	0.532324
266888351	H	0.489144	0.254898	0.366038
266888351	O	0.473314	0.225845	0.351478
266888351	C	0.546178	0.337647	0.374974
266888351	C	0.467326	0.17896	0.583149
266888351	O	0.441843	0.102023	0.360953
266888351	C	0.486505	0.257672	0.587211
266888351	Fe	0.454865	0.249395	0.354398
266888351	F	0.449867	0.242719	0.380536
266888351	C	0.488213	0.336305	0.465391
266888351	H	0.440553	0.327181	0.409199
266888351	H	0.589533	0.111465	0.535052
266888351	H	0.567287	0.261173	0.565669
266888351	H	0.446674	0.218919	0.442083
266888351	C	0.522305	0.183791	0.588532
266888351	O	0.590408	0.227305	0.423186
266888351	C	0.455767	0.337739	0.376114
266888351	C	0.577338	0.253537	0.576184
266888351	O	0.437527	0.27286	0.359291
266888351	C	0.757791	0.280416	0.445214
266888351	C	0.431582	0.253823	0.496912
266888351	O	0.592994	0.184199	0.421648
266888351	C	0.589858	0.274427	0.367486
266888351	C	0.431121	0.26629	0.589126
266888351	O	0.515425	0.0988183	0.579563
266888351	F	0.583274	0.331361	0.590364
266888351	C	0.428473	0.203643	0.373663
266888351	H	0.592185	0.189755	0.435274
266888351	C	0.505074	0.216468	0.348094
266888351	H	0.459276	0.232179	0.428847
266888351	C	0.5025	0.272258	0.593038
266888351	C	0.57316	0.335051	0.347643
266888351	C	0.429958	0.192112	0.391656
266888351	H	0.581656	0.174801	0.420877
266888351	O	0.430217	0.207003	0.560394
266888351	H	0.474992	0.0958536	0.514679
266888351	C	0.467207	0.262741	0.594454
266888351	C	0.429452	0.107435	0.57944
266888351	C	0.428618	0.286732	0.349482
266888351	C	0.502141	0.187156	0.591584
266888351	O	0.582327	0.243486	0.535193
266888351	C	0.592002	0.240371	0.56958
266888351	H	0.430746	0.117943	0.423046
266888351	C	0.549749	0.0955883	0.574639
266888351	O	0.719514	0.224402	0.439888
266888351	H	0.636743	0.0958835	0.520262
266888351	H	0.436312	0.138364	0.506422
266888351	O	0.432278	0.232836	0.346145
266888351	Fe	0.59816	0.228233	0.356573
266888351	C	0.657407	0.28064	0.56283
266888351	C	0.671043	0.244046	0.370072
266888351	H	0.68359	0.228361	0.394262
266888351	H	0.712337	0.338734	0.473276
266888351	H	0.638145	0.106068	0.349714
266888351	O	0.658491	0.150865	0.590001
266888351	O	0.735717	0.247691	0.347678
266888351	C	0.722764	0.343688	0.430651
266888351	H	0.683187	0.338905	0.401128
266888351	C	0.605365	0.233019	0.583728
266888351	O	0.596425	0.196447	0.353454
266888351	O	0.701579	0.229697	0.360393
266888351	O	0.678678	0.229153	0.431536
266888351	C	0.65848	0.270029	0.399526
266888351	O	0.758188	0.101059	0.54786
266888351	H	0.515781	0.342879	0.450324
266888351	C	0.432795	0.320303	0.396625
266888351	H	0.752011	0.309659	0.550812
266888351	H	0.660616	0.202936	0.355017
266888351	C	0.5931	0.234873	0.54857
266888351	O	0.469766	0.295034	0.346205
266888351	C	0.429194	0.320311	0.360884
266888351	H	0.603833	0.187097	0.486136
266888351	O	0.673013	0.198682	0.525463
266888351	O	0.735421	0.324906	0.51611
266888351	O	0.695854	0.197793	0.458741
266888351	O	0.635186	0.136478	0.412954
266888351	C	0.758201	0.246324	0.528618
266888351	Fe	0.69782	0.120319	0.399745
266888351	O	0.511003	0.343377	0.587975
266888351	H	0.748514	0.319101	0.521718
266888351	C	0.665411	0.250281	0.405154
266888351	C	0.651694	0.270734	0.52891
266888351	H	0.727691	0.272347	0.465774
266888351	H	0.665339	0.311939	0.567783
266888351	H	0.746171	0.215329	0.481092
266888351	H	0.726639	0.244405	0.536656
266888351	O	0.750766	0.342009	0.464382
266888351	F	0.756004	0.227421	0.422772
266888351	C	0.693064	0.186609	0.390869
266888351	O	0.664068	0.340009	0.544862
266888351	O	0.697739	0.340893	0.525023
266888351	C	0.635796	0.141665	0.431052
266888351	O	0.656104	0.123562	0.375112
266888351	H	0.659176	0.264917	0.34958
266888351	Fe	0.68716	0.332238	0.499161
266888351	C	0.689389	0.275108	0.456766
266888351	H	0.713684	0.333582	0.365095
266888351	C	0.673793	0.239455	0.390088
266888351	O	0.673708	0.117853	0.414098
266888351	H	0.719534	0.168381	0.506369
266888351	O	0.713317	0.228464	0.481077
266888351	C	0.700066	0.19012	0.353535
266888351	O	0.713915	0.130726	0.422708
266888351	H	0.664103	0.159688	0.579054
266888351	C	0.699687	0.187585	0.474459
266888351	O	0.673746	0.232022	0.47525
266888351	C	0.729484	0.130663	0.47376
266888351	C	0.739391	0.292779	0.445305
266888351	O	0.647329	0.260224	0.495664
266888351	O	0.648966	0.201483	0.486764
266888351	C	0.652396	0.198927	0.385307
266888351	O	0.597427	0.261439	0.355429
266888351	Fe	0.695286	0.228408	0.457153
266888351	O	0.701307	0.275812	0.381793
266888351	H	0.619356	0.227265	0.577827
266888351	O	0.697512	0.258126	0.453771
266888351	C	0.660768	0.300665	0.556592
266888351	O	0.698922	0.22951	0.510329
266888351	O	0.672613	0.276061	0.466127
266888351	C	0.683286	0.233711	0.35496
266888351	C	0.62434	0.157643	0.44015
266888351	F	0.673244	0.131114	0.469662
266888351	O	0.718723	0.191244	0.35228
266888351	Fe	0.673152	0.12377	0.442528
266888351	H	0.647983	0.184639	0.4138
266888351	O	0.734552	0.284528	0.385795
266888351	C	0.686451	0.192039	0.372179
266888351	C	0.666526	0.242191	0.425755
266888351	O	0.653585	0.24922	0.438211
266888351	O	0.657492	0.236773	0.515584
266888351	C	0.608229	0.180378	0.472284
266888351	C	0.68302	0.160391	0.413073
266888351	O	0.687569	0.114611	0.373123
266888351	C	0.598779	0.16208	0.465018
266888351	O	0.673064	0.32416	0.472166
266888351	O	0.738328	0.109743	0.50983
266888351	C	0.73893	0.240563	0.526083
266888351	C	0.734768	0.229789	0.508345
266888351	H	0.706369	0.294846	0.55324
266888351	O	0.633566	0.224246	0.468132
266888351	H	0.708467	0.16385	0.443475
266888351	C	0.713335	0.126084	0.440769
266888351	Fe	0.719566	0.329435	0.541325
266888351	Fe	0.727984	0.21962	0.347651
266888351	C	0.661109	0.261554	0.365355
266888351	H	0.655098	0.281002	0.410057
266888351	O	0.67759	0.154208	0.430808
266888351	O	0.692245	0.192876	0.490801
266888351	H	0.730794	0.213771	0.385635
266888351	C	0.737119	0.310226	0.435001
266888351	O	0.659029	0.331347	0.513328
266888351	C	0.712705	0.168729	0.474485
266888351	C	0.753084	0.133394	0.581524
266888351	H	0.708862	0.182131	0.390717
266888351	C	0.6552	0.306421	0.537529
266888351	O	0.644432	0.131474	0.443884
266888351	C	0.70474	0.291988	0.453388
266888351	O	0.606315	0.220424	0.542934
266888351	F	0.631146	0.267457	0.463335
266888351	C	0.636382	0.205633	0.473521
266888351	H	0.749659	0.297201	0.352532
266888351	C	0.71932	0.321524	0.435393
266888351	C	0.702271	0.311646	0.443156
266888351	H	0.614879	0.110947	0.389146
266888351	H	0.597382	0.139418	0.442542
266888351	H	0.724396	0.238506	0.440272
266888351	H	0.737868	0.311002	0.569088
266888351	H	0.748987	0.207198	0.374087
266888351	C	0.653234	0.265822	0.549337
266888351	H	0.663319	0.313836	0.476273
266888351	C	0.678594	0.180906	0.40495
266888351	C	0.730601	0.140192	0.491802
266888351	C	0.71859	0.28787	0.351412
266888351	H	0.750892	0.315595	0.427604
266888351	H	0.688131	0.317208	0.438427
266888351	C	0.720723	0.138236	0.456614
266888351	H	0.6069	0.219268	0.528296
266888351	H	0.667214	0.185286	0.521668
266888351	H	0.653749	0.250111	0.554871
266888351	O	0.700696	0.114075	0.445463
266888351	O	0.74414	0.319617	0.559081
266888351	C	0.717462	0.281818	0.373599
266888351	H	0.718458	0.319005	0.482105
266888351	O	0.690442	0.30361	0.50685
266888351	O	0.649718	0.29941	0.352468
266888351	Fe	0.673729	0.215714	0.499668
266888351	H	0.663251	0.204577	0.534498
266888351	C	0.655218	0.277566	0.583746
266888351	O	0.617754	0.204076	0.394545
266888351	C	0.652377	0.254494	0.512646
266888351	O	0.664136	0.313465	0.377717
266888351	C	0.658689	0.188162	0.402444
266888351	C	0.721052	0.159828	0.492359
266888351	Fe	0.649806	0.109803	0.402832
266888351	O	0.740542	0.218878	0.375471
266888351	C	0.749527	0.225454	0.494236
266888351	H	0.665419	0.33545	0.468341
266888351	H	0.740501	0.170894	0.581385
266888351	O	0.724777	0.123838	0.385332
266888351	C	0.658601	0.327239	0.531577
266888351	H	0.64986	0.176491	0.44397
266888351	H	0.73154	0.279279	0.39965
266888351	C	0.714571	0.228869	0.499866
266888351	H	0.728256	0.138297	0.3846
266888351	C	0.606339	0.152001	0.44868
266888351	C	0.64872	0.290629	0.523987
266888351	H	0.729074	0.217056	0.448072
266888351	H	0.73496	0.116241	0.47376
266888351	O	0.714569	0.33295	0.485998
266888351	C	0.665467	0.196647	0.369194
266888351	C	0.625796	0.187909	0.463728
266888351	C	0.724672	0.286288	0.457242
266888351	O	0.624137	0.0997338	0.389784
266888351	H	0.735035	0.116898	0.393534
266888351	H	0.739109	0.100441	0.35971
266888351	H	0.720565	0.292283	0.537045
266888351	O	0.626693	0.223293	0.369642
266888351	O	0.703342	0.332609	0.5681
266888351	O	0.751315	0.136923	0.52269
266888351	H	0.707064	0.319229	0.379948
266888351	C	0.741443	0.128374	0.50907
266888351	C	0.631033	0.209659	0.382961
266888351	O	0.745687	0.115923	0.58369
266888351	O	0.703579	0.323053	0.366052
266888351	H	0.679514	0.296583	0.50081
266888351	Fe	0.651893	0.250567	0.468317
266888351	Fe	0.677624	0.338793	0.362746
266888351	O	0.70862	0.3003	0.539909
266888351	C	0.634219	0.175407	0.447965
266888351	C	0.657279	0.276882	0.379464
266888351	C	0.656062	0.297881	0.370197
266888351	C	0.671193	0.117558	0.364696
266888351	O	0.691043	0.149179	0.39976
266888351	C	0.715341	0.158241	0.456826
266888351	H	0.644349	0.29453	0.509024
266888351	O	0.660384	0.260949	0.591919
266888351	H	0.508689	0.302033	0.34793
266888351	O	0.760781	0.26816	0.430459
266888351	H	0.435437	0.325541	0.346988
266888351	O	0.443369	0.0988558	0.505563
266888351	O	0.648583	0.292413	0.593655
266888351	H	0.463333	0.308378	0.347063
266888351	O	0.461314	0.18026	0.601187
266888351	O	0.450593	0.159772	0.640229
266888351	H	0.448025	0.169838	0.651177
266888351	H	0.533957	0.275466	0.657444
266888351	O	0.544788	0.254275	0.728346
266888351	C	0.533147	0.246457	0.74137
266888351	Fe	0.553444	0.143867	0.66946
266888351	O	0.52719	0.127742	0.675613
266888351	C	0.509241	0.134464	0.678916
266888351	O	0.502152	0.148409	0.66798
266888351	O	0.523378	0.203051	0.657351
266888351	O	0.502044	0.183241	0.64178
266888351	C	0.506904	0.200407	0.649096
266888351	O	0.547055	0.161319	0.692727
266888351	Fe	0.549868	0.190122	0.649804
266888351	O	0.539028	0.163653	0.654126
266888351	Fe	0.515246	0.154586	0.640978
266888351	O	0.561762	0.128049	0.64409
266888351	O	0.490805	0.143014	0.626395
266888351	O	0.526208	0.125359	0.638852
266888351	H	0.528421	0.121612	0.624479
266888351	O	0.529321	0.160472	0.614227
266888351	O	0.562956	0.218061	0.644774
266888351	O	0.559591	0.189247	0.680466
266888351	O	0.538239	0.191742	0.620034
266888351	C	0.553777	0.178933	0.695841
266888351	C	0.53224	0.178048	0.608189
266888351	H	0.485315	0.154927	0.621421
266888351	H	0.495617	0.136635	0.614089
266888351	C	0.477172	0.262022	0.706117
266888351	O	0.536886	0.121244	0.743329
266888351	Fe	0.563969	0.112612	0.749786
266888351	O	0.572213	0.113837	0.719883
266888351	O	0.572258	0.141524	0.754989
266888351	C	0.504808	0.241141	0.716323
266888351	C	0.497758	0.239091	0.752125
266888351	C	0.484002	0.242054	0.712538
266888351	C	0.477061	0.2371	0.747293
266888351	C	0.472066	0.235225	0.727833
266888351	C	0.512103	0.241522	0.736119
266888351	H	0.456219	0.235633	0.724618
266888351	H	0.51574	0.244259	0.704621
266888351	C	0.474451	0.21086	0.635039
266888351	C	0.494409	0.235801	0.651607
266888351	C	0.459725	0.224228	0.630954
266888351	C	0.479313	0.250142	0.647596
266888351	C	0.462196	0.244417	0.636944
266888351	C	0.49202	0.216143	0.645874
266888351	H	0.507109	0.23854	0.660464
266888351	H	0.449638	0.25524	0.634968
266888351	H	0.47148	0.195108	0.632507
266888351	C	0.55747	0.189271	0.76089
266888351	C	0.553427	0.17105	0.752748
266888351	C	0.555756	0.184214	0.718238
266888351	C	0.550865	0.16921	0.73223
266888351	C	0.565565	0.202846	0.74829
266888351	H	0.548746	0.154422	0.726886
266888351	H	0.497652	0.187221	0.606535
266888351	C	0.499454	0.127561	0.69677
266888351	C	0.509679	0.128796	0.715344
266888351	H	0.523627	0.137746	0.713847
266888351	O	0.453856	0.263199	0.754566
266888351	O	0.562103	0.330584	0.623805
266888351	C	0.56293	0.319661	0.63861
266888351	O	0.552456	0.30418	0.639173
266888351	O	0.509424	0.312042	0.634677
266888351	C	0.493731	0.317484	0.624665
266888351	Fe	0.528598	0.291006	0.623751
266888351	O	0.52349	0.272716	0.647658
266888351	H	0.52754	0.259298	0.642419
266888351	O	0.563411	0.2843	0.706138
266888351	O	0.436748	0.310863	0.664869
266888351	C	0.443764	0.328418	0.66472
266888351	Fe	0.460757	0.331353	0.704938
266888351	O	0.475297	0.324666	0.73064
266888351	C	0.493621	0.321603	0.731518
266888351	O	0.503355	0.316973	0.715487
266888351	O	0.461055	0.263688	0.696185
266888351	O	0.48666	0.277252	0.712493
266888351	Fe	0.448828	0.28832	0.6813
266888351	O	0.468329	0.306052	0.692672
266888351	Fe	0.496113	0.297024	0.693257
266888351	O	0.525305	0.287302	0.697312
266888351	O	0.506523	0.315481	0.671927
266888351	O	0.492281	0.273958	0.672044
266888351	O	0.465442	0.281965	0.656212
266888351	C	0.47908	0.269757	0.658355
266888351	H	0.524431	0.282151	0.711263
266888351	H	0.526483	0.274505	0.691327
266888351	C	0.578536	0.323575	0.653989
266888351	C	0.515702	0.306471	0.755396
266888351	C	0.504046	0.32277	0.750145
266888351	H	0.512845	0.293102	0.748145
266888351	C	0.459083	0.325825	0.634199
266888351	H	0.453822	0.31126	0.630468
266888351	H	0.464813	0.270435	0.60899
266888351	Fe	0.446506	0.253948	0.799698
266888351	O	0.454946	0.238272	0.77449
266888351	C	0.461297	0.246366	0.759393
266888351	F	0.461693	0.235364	0.812144
266888351	C	0.450061	0.130304	0.808953
266888351	Fe	0.560183	0.252216	0.778295
266888351	O	0.541366	0.244027	0.801802
266888351	O	0.538029	0.243638	0.759728
266888351	H	0.535833	0.256064	0.807048
266888351	H	0.529602	0.236654	0.797321
266888351	O	0.556801	0.112033	0.777417
266888351	Fe	0.568543	0.129271	0.796741
266888351	O	0.520687	0.110676	0.798428
266888351	O	0.583124	0.148275	0.816972
266888351	O	0.541266	0.131636	0.81464
266888351	C	0.524314	0.123017	0.811644
266888351	O	0.558044	0.152221	0.781811
266888351	C	0.560382	0.153552	0.763401
266888351	H	0.502409	0.240496	0.767904
266888351	C	0.487402	0.125777	0.811826
266888351	C	0.440103	0.215889	0.623806
266888351	C	0.505542	0.128415	0.822165
266888351	C	0.469808	0.132544	0.820093
266888351	H	0.487335	0.11921	0.797266
266888351	O	0.471476	0.271788	0.798592
266888351	O	0.441963	0.266923	0.826511
266888351	O	0.555035	0.290781	0.747426
266888351	O	0.54849	0.280199	0.778786
266888351	C	0.54725	0.292128	0.764541
266888351	C	0.53584	0.326008	0.776437
266888351	C	0.532104	0.308316	0.766176
266888351	H	0.549631	0.327894	0.784371
266888351	H	0.471509	0.277416	0.785236
266888351	H	0.444931	0.147153	0.643675
266888351	Fe	0.435195	0.172403	0.616059
266888351	H	0.559358	0.190155	0.777364
266888351	O	0.445026	0.114132	0.799258
266888351	H	0.514852	0.325652	0.679037
266888351	H	0.515442	0.11623	0.643273
266888351	H	0.568675	0.116487	0.64948
266888351	O	0.504829	0.275563	0.610566
266888351	O	0.546784	0.271408	0.610126
266888351	Fe	0.570841	0.269856	0.732413
266888351	H	0.575832	0.290632	0.699562
266888351	H	0.454501	0.119713	0.618159
266888351	H	0.495744	0.324177	0.666828
266888351	H	0.551289	0.22699	0.643567
266888351	O	0.577625	0.106722	0.814216
266888351	C	0.563955	0.201644	0.726719
266888351	F	0.568255	0.126538	0.684056
266888351	O	0.571589	0.224261	0.775435
266888351	H	0.56898	0.222151	0.65699
266888351	O	0.575591	0.17728	0.637898
266888351	O	0.579832	0.159638	0.665255
266888351	C	0.458545	0.111182	0.630731
266888351	O	0.578124	0.258109	0.756804
266888351	C	0.505489	0.116343	0.731689
266888351	O	0.490315	0.311302	0.607443
266888351	C	0.521587	0.111719	0.746143
266888351	O	0.437598	0.144388	0.810701
266888351	C	0.577924	0.217578	0.758543
266888351	H	0.568142	0.214182	0.718117
266888351	C	0.585169	0.164196	0.647863
266888351	H	0.555783	0.296104	0.710122
266888351	O	0.580544	0.262004	0.799401
266888351	H	0.585679	0.324852	0.756326
266888351	O	0.583838	0.248088	0.714688
266888351	H	0.584264	0.293799	0.661755
266888351	O	0.436318	0.198664	0.631142
266888351	C	0.483875	0.11332	0.695771
266888351	C	0.479179	0.33	0.633099
266888351	C	0.444527	0.104999	0.644289
266888351	H	0.478549	0.110763	0.680878
266888351	H	0.446048	0.304495	0.802417
266888351	O	0.434851	0.308238	0.811256
266888351	C	0.58994	0.30864	0.663193
266888351	C	0.523652	0.342089	0.771921
266888351	C	0.563297	0.275091	0.602543
266888351	C	0.478879	0.101758	0.712582
266888351	C	0.507872	0.340246	0.759358
266888351	O	0.435181	0.319564	0.716919
266888351	C	0.48924	0.103628	0.730643
266888351	C	0.585368	0.247287	0.610555
266888351	O	0.532384	0.309661	0.601923
266888351	H	0.579905	0.10176	0.716682
266888351	H	0.558754	0.110978	0.712701
266888351	O	0.589676	0.102221	0.760172
266888351	C	0.477983	0.103322	0.63138
266888351	O	0.434505	0.146741	0.602963
266888351	H	0.583861	0.253137	0.625597
266888351	O	0.52026	0.0980126	0.760088
266888351	C	0.447608	0.338204	0.646329
266888351	O	0.447747	0.339154	0.67993
266888351	O	0.571438	0.291948	0.6011
266888351	H	0.580088	0.160941	0.810621
266888351	O	0.428819	0.297872	0.752644
266888351	H	0.434706	0.25689	0.667151
266888351	C	0.574243	0.257259	0.596251
266888351	O	0.612053	0.0949143	0.653665
266888351	O	0.672899	0.288814	0.843899
266888351	O	0.428007	0.292702	0.702372
266888351	O	0.486018	0.344156	0.69436
266888351	O	0.641365	0.179129	0.595279
266888351	O	0.475925	0.0978148	0.597506
266888351	C	0.505287	0.136355	0.842061
266888351	C	0.469331	0.138994	0.840323
266888351	H	0.484737	0.0948579	0.744098
266888351	O	0.428545	0.273672	0.786487
266888351	H	0.597405	0.145884	0.81459
266888351	H	0.687283	0.224144	0.605076
266888351	C	0.706897	0.1479	0.781939
266888351	H	0.679017	0.107696	0.843849
266888351	H	0.44281	0.342381	0.767474
266888351	F	0.756928	0.164339	0.824878
266888351	H	0.752725	0.234117	0.675661
266888351	C	0.643942	0.160736	0.600119
266888351	C	0.620669	0.115077	0.752609
266888351	C	0.746817	0.16599	0.594813
266888351	C	0.48696	0.0988695	0.612992
266888351	H	0.715625	0.0988793	0.766532
266888351	H	0.432603	0.32205	0.807224
266888351	H	0.671856	0.212293	0.618325
266888351	H	0.692974	0.101196	0.761172
266888351	H	0.731453	0.254074	0.607161
266888351	C	0.759882	0.198625	0.596926
266888351	O	0.748846	0.275697	0.675105
266888351	C	0.670829	0.340142	0.622252
266888351	H	0.670955	0.294227	0.774474
266888351	C	0.663041	0.281348	0.829022
266888351	C	0.750818	0.29242	0.667035
266888351	H	0.676497	0.320126	0.827293
266888351	C	0.757616	0.270895	0.61939
266888351	H	0.635612	0.2707	0.801081
266888351	O	0.752694	0.301581	0.739378
266888351	O	0.74656	0.130053	0.840644
266888351	H	0.646178	0.122863	0.614701
266888351	O	0.739056	0.192404	0.729428
266888351	H	0.652364	0.121272	0.704028
266888351	C	0.643158	0.273267	0.831858
266888351	C	0.626559	0.102359	0.643354
266888351	O	0.704993	0.19365	0.754148
266888351	O	0.676179	0.310645	0.641055
266888351	H	0.753214	0.186623	0.778875
266888351	Fe	0.663334	0.250026	0.620628
266888351	C	0.735694	0.110717	0.813394
266888351	C	0.685769	0.338778	0.607208
266888351	O	0.638213	0.171557	0.676102
266888351	C	0.643637	0.120106	0.717391
266888351	C	0.634736	0.315195	0.757763
266888351	C	0.610687	0.260289	0.819162
266888351	C	0.630967	0.266506	0.815493
266888351	O	0.681409	0.288525	0.765184
266888351	C	0.608317	0.134661	0.646366
266888351	O	0.59424	0.222349	0.751754
266888351	O	0.612536	0.278543	0.764248
266888351	O	0.620344	0.266179	0.611829
266888351	H	0.716227	0.172723	0.821
266888351	C	0.623386	0.123616	0.636987
266888351	C	0.602999	0.153711	0.639196
266888351	H	0.602585	0.203531	0.708591
266888351	H	0.703479	0.281792	0.738546
266888351	O	0.67092	0.280702	0.810006
266888351	O	0.645717	0.318163	0.63069
266888351	C	0.747927	0.293145	0.645486
266888351	C	0.730849	0.264415	0.714193
266888351	C	0.625318	0.202955	0.687179
266888351	O	0.746283	0.194895	0.769306
266888351	C	0.736503	0.323679	0.791463
266888351	O	0.595745	0.289549	0.736905
266888351	H	0.691759	0.106049	0.677335
266888351	C	0.711982	0.234241	0.723988
266888351	O	0.736275	0.130788	0.758735
266888351	O	0.695866	0.193921	0.722779
266888351	H	0.743135	0.137514	0.797799
266888351	C	0.713994	0.255393	0.724769
266888351	O	0.635231	0.238887	0.620463
266888351	C	0.602609	0.244592	0.715659
266888351	C	0.751128	0.137415	0.750081
266888351	O	0.746096	0.253738	0.709975
266888351	C	0.640225	0.212706	0.676175
266888351	O	0.665463	0.237907	0.64934
266888351	O	0.752908	0.156545	0.749166
266888351	O	0.60503	0.243857	0.788779
266888351	H	0.682009	0.290636	0.810384
266888351	Fe	0.709014	0.131423	0.745796
266888351	H	0.629084	0.336956	0.677686
266888351	O	0.64229	0.301401	0.664847
266888351	O	0.729717	0.28318	0.71056
266888351	H	0.646077	0.304415	0.755712
266888351	H	0.74562	0.204575	0.734877
266888351	C	0.732388	0.120616	0.832261
266888351	O	0.720619	0.161015	0.779251
266888351	F	0.732344	0.323296	0.711254
266888351	F	0.704455	0.338159	0.735672
266888351	C	0.607479	0.292035	0.751533
266888351	C	0.648219	0.131509	0.734417
266888351	C	0.614835	0.311881	0.756827
266888351	O	0.751898	0.307165	0.678526
266888351	Fe	0.698951	0.164222	0.712596
266888351	O	0.706076	0.326862	0.775152
266888351	C	0.661999	0.336613	0.767646
266888351	C	0.612185	0.213158	0.69889
266888351	H	0.695635	0.297507	0.680564
266888351	O	0.65797	0.262469	0.671391
266888351	O	0.681148	0.297108	0.682034
266888351	C	0.618513	0.102552	0.735952
266888351	H	0.67773	0.28782	0.692261
266888351	C	0.613858	0.162051	0.624133
266888351	O	0.692794	0.259829	0.61901
266888351	C	0.6998	0.202676	0.739128
266888351	C	0.620677	0.247881	0.613312
266888351	O	0.716252	0.159129	0.827543
266888351	C	0.688592	0.234913	0.751373
266888351	C	0.742728	0.309469	0.777507
266888351	Fe	0.752053	0.304959	0.7099
266888351	H	0.648287	0.203235	0.666177
266888351	C	0.754485	0.146828	0.598408
266888351	O	0.597416	0.126772	0.779424
266888351	C	0.698299	0.114332	0.799122
266888351	O	0.612644	0.253297	0.728879
266888351	O	0.664587	0.260214	0.776487
266888351	C	0.604719	0.258397	0.838818
266888351	C	0.597884	0.254364	0.80193
266888351	C	0.613605	0.233699	0.700796
266888351	H	0.681677	0.22647	0.76261
266888351	O	0.722668	0.120957	0.7221
266888351	O	0.703123	0.134889	0.700515
266888351	H	0.638936	0.13778	0.765535
266888351	H	0.731419	0.301951	0.77029
266888351	C	0.722549	0.275415	0.629627
266888351	H	0.717669	0.296641	0.65086
266888351	H	0.665986	0.338154	0.836721
266888351	C	0.727838	0.291393	0.640594
266888351	H	0.720302	0.225065	0.713968
266888351	H	0.682449	0.118564	0.798529
266888351	O	0.712629	0.15749	0.736493
266888351	H	0.609954	0.177341	0.620089
266888351	C	0.754452	0.180805	0.606578
266888351	C	0.66438	0.322471	0.632238
266888351	C	0.602552	0.114344	0.765993
266888351	Fe	0.667655	0.286286	0.655963
266888351	O	0.671009	0.158081	0.727467
266888351	H	0.750765	0.183924	0.72427
266888351	O	0.681419	0.128142	0.735053
266888351	H	0.736453	0.20305	0.776558
266888351	C	0.73663	0.266377	0.616173
266888351	O	0.619948	0.287835	0.646269
266888351	O	0.694355	0.270001	0.650118
266888351	Fe	0.728522	0.175094	0.752659
266888351	O	0.695127	0.143908	0.768562
266888351	C	0.614467	0.332644	0.673575
266888351	C	0.656174	0.24447	0.665577
266888351	C	0.714896	0.120885	0.705544
266888351	C	0.601288	0.327506	0.757864
266888351	C	0.70274	0.267471	0.632758
266888351	C	0.701509	0.265548	0.7378
266888351	C	0.62985	0.243087	0.691553
266888351	C	0.642538	0.232968	0.677978
266888351	O	0.669917	0.329711	0.782781
266888351	O	0.612853	0.169981	0.698825
266888351	Fe	0.60526	0.249718	0.758521
266888351	C	0.732458	0.125508	0.799008
266888351	H	0.615948	0.155691	0.69717
266888351	C	0.677704	0.268375	0.765475
266888351	Fe	0.634143	0.290946	0.620844
266888351	F	0.630801	0.240208	0.75827
266888351	C	0.634382	0.131737	0.62119
266888351	C	0.630726	0.151181	0.614977
266888351	O	0.672394	0.222532	0.607926
266888351	O	0.707627	0.334826	0.807502
266888351	C	0.667681	0.140807	0.734412
266888351	C	0.609295	0.312716	0.669135
266888351	O	0.666317	0.330599	0.824297
266888351	C	0.624612	0.299263	0.659915
266888351	O	0.655473	0.275757	0.632056
266888351	C	0.718672	0.104004	0.692789
266888351	C	0.625241	0.181127	0.686257
266888351	C	0.636214	0.129629	0.751862
266888351	F	0.614037	0.305102	0.609845
266888351	C	0.7002	0.224248	0.737855
266888351	C	0.631086	0.103892	0.719138
266888351	H	0.69545	0.325585	0.605474
266888351	C	0.641093	0.333655	0.763537
266888351	H	0.720327	0.178117	0.687458
266888351	C	0.688799	0.256019	0.751059
266888351	C	0.712363	0.129786	0.794493
266888351	F	0.6855	0.170686	0.689668
266888351	C	0.7512	0.336809	0.799289
266888351	C	0.715537	0.328472	0.791829
266888351	H	0.631598	0.259144	0.693347
266888351	O	0.725342	0.171487	0.6995
266888351	C	0.603102	0.238224	0.604231
266888351	O	0.705844	0.102732	0.755944
266888351	H	0.601796	0.126708	0.658794
266888351	C	0.584572	0.343441	0.656978
266888351	O	0.715057	0.122077	0.838594
266888351	Fe	0.557867	0.32052	0.595337
266888351	H	0.438626	0.129886	0.70482
266888351	H	0.589591	0.25301	0.842746
266888351	O	0.430631	0.138218	0.6955
266888351	H	0.747196	0.0980931	0.707206
266888351	C	0.704421	0.0961978	0.680755
266888351	C	0.704281	0.0951488	0.806286
266888351	H	0.430705	0.171586	0.837591
266888351	F	0.581525	0.224077	0.904131
266888351	O	0.578498	0.12282	0.932544
266888351	Fe	0.500861	0.147519	0.91499
266888351	O	0.499962	0.13919	0.885821
266888351	C	0.484748	0.142551	0.8742
266888351	O	0.467592	0.148332	0.880715
266888351	O	0.514906	0.120443	0.924288
266888351	O	0.473702	0.137141	0.920333
266888351	O	0.488428	0.176154	0.908126
266888351	O	0.456436	0.174629	0.915544
266888351	C	0.471829	0.184599	0.913202
266888351	F	0.525609	0.157137	0.911434
266888351	C	0.493421	0.259349	0.912636
266888351	C	0.470367	0.206435	0.918741
266888351	C	0.478766	0.241957	0.915026
266888351	C	0.48369	0.222212	0.911438
266888351	H	0.496904	0.218084	0.901834
266888351	O	0.509883	0.320481	0.866916
266888351	Fe	0.495056	0.334855	0.911414
266888351	O	0.500923	0.26451	0.89585
266888351	O	0.493438	0.270803	0.927293
266888351	O	0.472757	0.328761	0.891466
266888351	Fe	0.50665	0.293794	0.883965
266888351	O	0.504468	0.307338	0.909922
266888351	O	0.534023	0.281553	0.923361
266888351	O	0.477196	0.29649	0.881892
266888351	O	0.536853	0.290712	0.88631
266888351	C	0.468344	0.313163	0.880907
266888351	H	0.542638	0.296402	0.874859
266888351	C	0.447436	0.294507	0.857625
266888351	C	0.449706	0.311249	0.870026
266888351	H	0.538573	0.276625	0.883835
266888351	O	0.494023	0.128414	0.956019
266888351	O	0.50064	0.157825	0.943464
266888351	C	0.496381	0.147444	0.958644
266888351	Fe	0.471435	0.114866	0.938827
266888351	O	0.464296	0.21661	0.991772
266888351	C	0.456016	0.199697	0.991807
266888351	Fe	0.45799	0.24478	0.000316562
266888351	O	0.450961	0.250456	0.971057
266888351	O	0.465654	0.237636	0.0295391
266888351	C	0.455822	0.243847	0.0444122
266888351	C	0.443926	0.237086	0.959191
266888351	F	0.482946	0.251301	0.992596
266888351	O	0.455906	0.13609	0.0214385
266888351	O	0.509796	0.132978	0.0720963
266888351	Fe	0.475899	0.120528	0.0401513
266888351	O	0.468157	0.137081	0.0614096
266888351	Fe	0.487159	0.153481	0.0751226
266888351	C	0.451339	0.179437	0.0742344
266888351	O	0.49502	0.166696	0.0484954
266888351	O	0.499223	0.138094	0.0344144
266888351	C	0.496847	0.156468	0.0330651
266888351	C	0.456143	0.21245	0.933743
266888351	C	0.46324	0.24627	0.928724
266888351	C	0.454181	0.231878	0.939519
266888351	C	0.451275	0.212818	0.0612919
266888351	C	0.45684	0.233017	0.0629279
266888351	C	0.448795	0.201334	0.0777486
266888351	H	0.450433	0.206407	0.0467062
266888351	C	0.478147	0.177776	0.0102037
266888351	C	0.475699	0.173715	0.974874
266888351	C	0.493695	0.164296	0.0129978
266888351	C	0.490491	0.158362	0.976088
266888351	C	0.500087	0.153872	0.995038
266888351	C	0.469388	0.182625	0.992507
266888351	H	0.468375	0.175774	0.959572
266888351	H	0.511384	0.141966	0.9951
266888351	H	0.469601	0.183528	0.0236991
266888351	O	0.452852	0.274655	0.00849309
266888351	O	0.473952	0.32852	0.933606
266888351	C	0.472599	0.316649	0.947891
266888351	O	0.485763	0.304207	0.95158
266888351	Fe	0.50963	0.293609	0.936991
266888351	O	0.51495	0.278526	0.963499
266888351	H	0.529454	0.281233	0.965774
266888351	H	0.514686	0.264229	0.959719
266888351	H	0.460058	0.261167	0.933321
266888351	C	0.454221	0.315698	0.961901
266888351	C	0.454912	0.304629	0.980202
266888351	C	0.502	0.284077	0.0243756
266888351	C	0.507428	0.299113	0.0116857
266888351	H	0.520923	0.298649	0.00191754
266888351	H	0.540878	0.27363	0.933778
266888351	C	0.51426	0.266299	0.0261744
266888351	C	0.495106	0.316943	0.0112342
266888351	O	0.540235	0.202075	0.978234
266888351	C	0.478269	0.318463	0.0241285
266888351	O	0.506091	0.278958	0.856213
266888351	H	0.526973	0.196252	0.979925
266888351	C	0.552031	0.196977	0.993621
266888351	H	0.571981	0.212279	0.962371
266888351	O	0.544341	0.187899	0.00786224
266888351	C	0.573049	0.202284	0.992824
266888351	H	0.581156	0.195663	0.0247504
266888351	C	0.580882	0.210297	0.975031
266888351	C	0.585569	0.199649	0.00982241
266888351	O	0.522066	0.33754	0.999248
266888351	C	0.503373	0.336244	0.00307412
266888351	C	0.506983	0.103357	0.926878
266888351	O	0.453222	0.129951	0.954828
266888351	C	0.508966	0.114192	0.0704638
266888351	O	0.536806	0.335193	0.0415233
266888351	O	0.468749	0.174284	0.0781168
266888351	O	0.564777	0.33008	0.00748001
266888351	O	0.437041	0.196357	0.99287
266888351	Fe	0.451198	0.146644	0.90672
266888351	O	0.530719	0.264762	0.0161075
266888351	C	0.474208	0.304356	0.0379391
266888351	C	0.485902	0.287309	0.0383277
266888351	H	0.559629	0.302625	0.942635
266888351	H	0.468891	0.300928	0.986654
266888351	O	0.582837	0.265441	0.910137
266888351	H	0.449769	0.145078	0.986906
266888351	O	0.526524	0.31634	0.947901
266888351	C	0.443979	0.101883	0.90583
266888351	O	0.510157	0.251142	0.039849
266888351	C	0.573766	0.300488	0.913634
266888351	C	0.561546	0.309611	0.927648
266888351	H	0.482417	0.275704	0.048318
266888351	C	0.457076	0.241477	0.0827074
266888351	O	0.443247	0.257564	0.0415341
266888351	O	0.495625	0.105691	0.0595172
266888351	C	0.456236	0.306794	0.0514728
266888351	H	0.445867	0.201601	0.939462
266888351	H	0.520679	0.240758	0.0378099
266888351	O	0.453789	0.292165	0.0662125
266888351	C	0.436239	0.137798	0.0227258
266888351	C	0.437053	0.283869	0.00548429
266888351	C	0.577695	0.310289	0.895739
266888351	Fe	0.439864	0.137295	0.069789
266888351	C	0.585121	0.282104	0.918678
266888351	C	0.550417	0.326202	0.923387
266888351	O	0.438808	0.167458	0.0669168
266888351	O	0.444288	0.106857	0.0731475
266888351	C	0.532077	0.329775	0.936026
266888351	C	0.437464	0.29912	0.989931
266888351	O	0.443888	0.119098	0.897451
266888351	C	0.437917	0.139889	0.950317
266888351	H	0.58885	0.304051	0.88521
266888351	O	0.452291	0.103397	0.0423576
266888351	O	0.444474	0.322253	0.0511954
266888351	C	0.486833	0.139493	0.852077
266888351	C	0.511424	0.338728	0.870468
266888351	O	0.484273	0.104636	0.0151964
266888351	C	0.523762	0.103728	0.0844483
266888351	H	0.470378	0.331375	0.0257087
266888351	H	0.540574	0.105769	0.947705
266888351	C	0.434033	0.144815	0.98609
266888351	C	0.568934	0.328914	0.892377
266888351	C	0.435506	0.321683	0.954792
266888351	O	0.489965	0.100053	0.920686
266888351	H	0.51925	0.135886	0.850083
266888351	C	0.554523	0.336213	0.905714
266888351	H	0.457509	0.257149	0.0851762
266888351	H	0.586854	0.133861	0.927909
266888351	O	0.579529	0.331913	0.858098
266888351	H	0.434656	0.328294	0.939308
266888351	H	0.573088	0.329459	0.0191482
266888351	O	0.450588	0.0991641	0.922853
266888351	O	0.433777	0.145641	0.932406
266888351	H	0.760119	0.314673	0.00920133
266888351	H	0.558042	0.31788	0.00976967
266888351	H	0.528095	0.324827	0.0368025
266888351	H	0.441362	0.296017	0.0730451
266888351	C	0.573054	0.341326	0.873606
266888351	C	0.433291	0.321356	0.87696
266888351	H	0.47981	0.112926	0.00408132
266888351	H	0.75505	0.294996	0.996551
266888351	H	0.500021	0.288163	0.847106
266888351	O	0.758251	0.148722	0.893175
266888351	H	0.499197	0.105363	0.0141448
266888351	H	0.435288	0.332983	0.886979
266888351	H	0.519732	0.278298	0.852991
266888351	O	0.589012	0.0961547	0.0723257
266888351	O	0.591525	0.129015	0.973838
266888351	H	0.591924	0.141846	0.965452
266888351	C	0.559298	0.0973371	0.0911159
266888351	O	0.507359	0.172633	0.087528
266888351	C	0.759905	0.171001	0.99375
266888351	H	0.657386	0.0986331	0.892821
266888351	C	0.542455	0.0974892	0.0777322
266888351	H	0.460383	0.28834	0.850828
266888351	O	0.42957	0.225723	0.964746
266888351	O	0.519135	0.342686	0.930511
266888351	H	0.640998	0.138871	0.072789
266888351	O	0.659562	0.190081	0.0152254
266888351	C	0.70149	0.199137	0.0290552
266888351	C	0.719492	0.13778	0.0925823
266888351	H	0.604261	0.129987	0.982073
266888351	H	0.572254	0.0959202	0.908169
266888351	O	0.690499	0.199003	0.0442186
266888351	O	0.666623	0.231709	0.0251234
266888351	O	0.595464	0.232206	0.942668
266888351	C	0.744398	0.0951031	0.886576
266888351	O	0.597863	0.282689	0.931514
266888351	H	0.671107	0.151629	0.852581
266888351	O	0.430996	0.236567	0.00674702
266888351	O	0.428365	0.135998	0.0396765
266888351	H	0.672933	0.231606	0.0635139
266888351	C	0.429321	0.288904	0.850429
266888351	C	0.70557	0.260932	0.0337798
266888351	Fe	0.676396	0.199822	0.992641
266888351	C	0.669143	0.310538	0.937108
266888351	C	0.707615	0.126882	0.0247297
266888351	O	0.652469	0.182155	0.0588385
266888351	O	0.744931	0.273915	0.902827
266888351	H	0.63509	0.320497	0.909416
266888351	Fe	0.700884	0.329324	0.035678
266888351	C	0.639247	0.27853	0.981259
266888351	C	0.663414	0.307056	0.0223046
266888351	H	0.714056	0.298313	0.872685
266888351	O	0.660079	0.224465	0.0652491
266888351	H	0.650801	0.235143	0.061696
266888351	C	0.637034	0.260093	0.991137
266888351	C	0.686259	0.155642	0.897601
266888351	C	0.636214	0.150467	0.920727
266888351	Fe	0.751441	0.339444	0.925333
266888351	O	0.624739	0.118774	0.913088
266888351	O	0.754981	0.0972072	0.0651207
266888351	C	0.66801	0.16157	0.9069
266888351	H	0.70349	0.0991601	0.0173273
266888351	O	0.652643	0.312497	0.0369172
266888351	O	0.745071	0.133034	0.0448168
266888351	H	0.745933	0.175486	0.92169
266888351	O	0.648763	0.260159	0.955607
266888351	O	0.697239	0.209739	0.0136215
266888351	O	0.669817	0.259425	0.920247
266888351	H	0.66545	0.118744	0.858477
266888351	O	0.740663	0.290793	0.943024
266888351	O	0.630421	0.213448	0.0342115
266888351	F	0.691673	0.208926	0.973931
266888351	C	0.756496	0.252798	0.875926
266888351	C	0.758597	0.335279	0.0639644
266888351	C	0.732109	0.267962	0.056113
266888351	C	0.648201	0.255424	0.0079654
266888351	C	0.740683	0.197226	0.869524
266888351	H	0.655441	0.313657	0.931215
266888351	Fe	0.663472	0.314791	0.0644249
266888351	C	0.72869	0.111193	0.889319
266888351	H	0.66023	0.269272	0.0328985
266888351	H	0.615447	0.172013	0.990567
266888351	O	0.628195	0.224291	0.951432
266888351	H	0.696617	0.168107	0.074781
266888351	Fe	0.731184	0.156846	0.893829
266888351	C	0.750516	0.272077	0.885339
266888351	C	0.635272	0.272782	0.851001
266888351	H	0.755533	0.334382	0.0478892
266888351	C	0.641585	0.185912	0.912206
266888351	H	0.630261	0.130343	0.0103456
266888351	O	0.615845	0.279875	0.888995
266888351	H	0.722087	0.310412	0.0114443
266888351	O	0.721448	0.324906	0.0124931
266888351	O	0.758169	0.156551	0.0769206
266888351	H	0.631394	0.248003	0.98351
266888351	O	0.670464	0.226349	0.948051
266888351	O	0.679019	0.112586	0.857559
266888351	O	0.682772	0.290481	0.0593758
266888351	H	0.661737	0.131944	0.916183
266888351	Fe	0.624332	0.283405	0.918946
266888351	C	0.616782	0.26587	0.855189
266888351	H	0.684331	0.16661	0.978554
266888351	C	0.660608	0.165457	0.056214
266888351	O	0.652217	0.283647	0.907971
266888351	H	0.724488	0.168509	0.929777
266888351	C	0.730347	0.305972	0.947591
266888351	C	0.661522	0.181388	0.905912
266888351	H	0.715218	0.329049	0.99951
266888351	C	0.741262	0.167903	0.00491518
266888351	O	0.659186	0.156354	0.0398392
266888351	O	0.622187	0.314899	0.915361
266888351	C	0.654578	0.291692	0.0107238
266888351	H	0.737526	0.198729	0.0106757
266888351	H	0.650991	0.308836	0.985117
266888351	H	0.621146	0.321244	0.928984
266888351	H	0.676538	0.216935	0.938954
266888351	H	0.747618	0.240332	0.0159465
266888351	F	0.747454	0.319888	0.854884
266888351	C	0.687609	0.155841	0.0797114
266888351	H	0.665797	0.135867	0.0061259
266888351	H	0.70616	0.335394	0.958664
266888351	H	0.750742	0.145311	0.0397007
266888351	H	0.689647	0.165305	0.857079
266888351	Fe	0.597891	0.107991	0.951172
266888351	C	0.712594	0.246523	0.999613
266888351	H	0.749651	0.123089	0.034882
266888351	O	0.725384	0.236313	0.986837
266888351	O	0.608869	0.2465	0.883582
266888351	O	0.621952	0.182222	0.0306376
266888351	C	0.737716	0.24711	0.0270077
266888351	Fe	0.647966	0.24161	0.933584
266888351	C	0.67784	0.29202	0.931713
266888351	O	0.662951	0.149673	0.00100598
266888351	C	0.731987	0.184484	0.0137992
266888351	Fe	0.602027	0.239624	0.912752
266888351	O	0.625152	0.254694	0.921979
266888351	Fe	0.659989	0.206061	0.0401933
266888351	H	0.670471	0.191829	0.897947
266888351	H	0.737203	0.233193	0.893243
266888351	C	0.647406	0.295056	0.991284
266888351	O	0.624565	0.14154	0.0186615
266888351	O	0.715334	0.109351	0.876443
266888351	O	0.696238	0.25321	0.992177
266888351	O	0.712791	0.110528	0.0137243
266888351	O	0.716667	0.308945	0.881652
266888351	C	0.745125	0.25559	0.0442621
266888351	H	0.695442	0.161497	0.0394637
266888351	C	0.714655	0.182236	0.025933
266888351	H	0.690837	0.264184	0.028257
266888351	C	0.612554	0.214356	0.991661
266888351	O	0.632009	0.287484	0.948206
266888351	O	0.682051	0.334922	0.0564871
266888351	C	0.698701	0.322658	0.952112
266888351	H	0.642177	0.282923	0.0671588
266888351	H	0.663838	0.189201	0.957803
266888351	O	0.648486	0.22077	0.911631
266888351	Fe	0.701712	0.131625	0.863223
266888351	C	0.7317	0.149497	0.00744751
266888351	O	0.754868	0.288027	0.875821
266888351	O	0.641367	0.296023	0.0734985
266888351	O	0.656209	0.191352	0.970497
266888351	O	0.629751	0.172381	0.98843
266888351	O	0.617701	0.21229	0.913887
266888351	O	0.738302	0.188346	0.886771
266888351	H	0.631779	0.161369	0.978809
266888351	C	0.639984	0.276307	0.959994
266888351	H	0.613037	0.171749	0.920652
266888351	H	0.739106	0.278065	0.0662462
266888351	C	0.608395	0.225725	0.955507
266888351	H	0.627734	0.219148	0.990445
266888351	H	0.738591	0.138077	0.999333
266888351	C	0.697626	0.289197	0.938168
266888351	O	0.633541	0.104862	0.0786463
266888351	O	0.685427	0.153436	0.84913
266888351	H	0.644949	0.278397	0.862868
266888351	C	0.628744	0.169539	0.918186
266888351	O	0.69073	0.172192	0.990147
266888351	H	0.720266	0.238517	0.973396
266888351	C	0.696525	0.13928	0.0901425
266888351	O	0.737064	0.164188	0.924106
266888351	C	0.667701	0.1544	0.0731249
266888351	C	0.658559	0.236663	0.00907587
266888351	C	0.651932	0.102116	0.0822764
266888351	Fe	0.747631	0.317065	0.881555
266888351	C	0.70884	0.163303	0.0313474
266888351	C	0.601278	0.216826	0.97444
266888351	C	0.716566	0.146301	0.021233
266888351	H	0.610574	0.144001	0.0139253
266888351	H	0.628255	0.301248	0.0691624
266888351	C	0.656035	0.147159	0.91567
266888351	O	0.735489	0.188524	0.854138
266888351	O	0.728505	0.125924	0.0809749
266888351	C	0.717861	0.250212	0.0212035
266888351	C	0.618739	0.200641	0.027214
266888351	O	0.724416	0.150832	0.867869
266888351	O	0.701883	0.165862	0.899205
266888351	O	0.641499	0.336943	0.0683011
266888351	O	0.729376	0.126101	0.901626
266888351	C	0.653703	0.272173	0.0196863
266888351	C	0.679322	0.325717	0.947102
266888351	C	0.701506	0.290012	0.0551489
266888351	H	0.715805	0.30637	0.895704
266888351	H	0.680795	0.236665	0.950668
266888351	C	0.747666	0.23434	0.880261
266888351	O	0.738227	0.324024	0.947861
266888351	Fe	0.642989	0.165746	0.0157451
266888351	C	0.666654	0.277767	0.918741
266888351	C	0.708259	0.304933	0.94766
266888351	C	0.750916	0.217958	0.86696
266888351	O	0.681296	0.310685	0.0196466
266888351	C	0.664367	0.120932	0.0853891
266888351	Fe	0.740773	0.158899	0.847271
266888351	C	0.605894	0.205251	0.00913896
266888351	O	0.618816	0.127981	0.942557
266888351	C	0.712023	0.271252	0.050674
266888351	O	0.686625	0.139639	0.88781
266888351	C	0.656098	0.138341	0.0778262
266888351	H	0.703361	0.177756	0.985126
266888351	C	0.635215	0.207099	0.913237
266888351	O	0.695307	0.125737	0.0391148
266888351	O	0.66233	0.227223	0.993181
266888351	C	0.612532	0.264621	0.877689
266888351	H	0.705641	0.275563	0.933261
266888351	Fe	0.75679	0.126681	0.0724568
266888351	O	0.751333	0.314532	0.909934
266888351	O	0.711513	0.305553	0.0520282
266888351	C	0.624942	0.132226	0.925554
266888351	F	0.611624	0.11303	0.0460472
266888351	H	0.455161	0.141581	0.846753
266888351	H	0.479112	0.0950349	0.971261
266888351	O	0.512949	0.344533	0.888402
266888351	O	0.672375	0.317003	0.0922281
266888351	C	0.685343	0.122077	0.0923058
266888351	C	0.745219	0.343971	0.0765152
266888351	H	0.545029	0.0953572	0.0625332
266888351	C	0.449444	0.0952785	0.0587088
266888351	H	0.747082	0.0950027	0.0527741
266888351	H	0.517853	0.16271	0.092788
266888351	Fe	0.456034	0.38413	0.125828
266888351	O	0.484833	0.377055	0.129854
266888351	O	0.459751	0.413491	0.133874
266888351	O	0.554904	0.387654	0.139339
266888351	C	0.550196	0.369999	0.144368
266888351	Fe	0.576839	0.406489	0.147545
266888351	O	0.472451	0.403396	0.259177
266888351	O	0.47334	0.393334	0.218522
266888351	H	0.470495	0.394871	0.204105
266888351	H	0.462712	0.383452	0.221926
266888351	H	0.54301	0.38188	0.266678
266888351	C	0.517959	0.383179	0.150209
266888351	C	0.511935	0.388991	0.169034
266888351	C	0.516233	0.377061	0.185483
266888351	C	0.529035	0.366258	0.147659
266888351	H	0.518695	0.395512	0.138486
266888351	H	0.515225	0.382306	0.199817
266888351	H	0.473684	0.368182	0.263093
266888351	O	0.503184	0.422017	0.157662
266888351	C	0.505705	0.410141	0.172336
266888351	O	0.501014	0.416621	0.191171
266888351	H	0.501082	0.430813	0.19168
266888351	C	0.446788	0.424955	0.142185
266888351	O	0.559814	0.429255	0.135356
266888351	O	0.564162	0.411371	0.175831
266888351	C	0.57411	0.419285	0.190245
266888351	O	0.469804	0.435728	0.207461
266888351	C	0.455562	0.447863	0.202838
266888351	Fe	0.449597	0.463334	0.241923
266888351	Fe	0.472022	0.419808	0.234054
266888351	O	0.470333	0.444667	0.248933
266888351	O	0.472519	0.481644	0.233013
266888351	O	0.489996	0.479612	0.26141
266888351	C	0.486911	0.487905	0.243995
266888351	O	0.512643	0.443592	0.2556
266888351	O	0.504209	0.422257	0.231848
266888351	C	0.518174	0.431951	0.241535
266888351	O	0.531089	0.566608	0.256667
266888351	C	0.527144	0.547925	0.254955
266888351	O	0.464354	0.551342	0.157831
266888351	C	0.46656	0.557415	0.139662
266888351	Fe	0.468404	0.524697	0.171173
266888351	O	0.472448	0.500292	0.187548
266888351	H	0.498245	0.468588	0.17847
266888351	O	0.490541	0.471301	0.166374
266888351	O	0.46793	0.484521	0.114875
266888351	O	0.498448	0.476358	0.122148
266888351	Fe	0.468053	0.513408	0.121809
266888351	O	0.480107	0.509932	0.147853
266888351	Fe	0.504957	0.493446	0.148407
266888351	O	0.496288	0.535719	0.179752
266888351	O	0.531228	0.477934	0.149231
266888351	O	0.513228	0.507326	0.1758
266888351	C	0.509001	0.523361	0.18598
266888351	O	0.5176	0.514293	0.132326
266888351	H	0.534311	0.476712	0.163061
266888351	H	0.526067	0.464594	0.145652
266888351	F	0.457065	0.53673	0.1929
266888351	C	0.471073	0.580258	0.137933
266888351	C	0.459688	0.442736	0.168373
266888351	H	0.46744	0.430199	0.17302
266888351	C	0.57775	0.441482	0.219269
266888351	C	0.545469	0.427269	0.214658
266888351	C	0.57317	0.447951	0.237908
266888351	C	0.539242	0.433522	0.233632
266888351	C	0.553415	0.444656	0.244701
266888351	C	0.564499	0.431185	0.20755
266888351	H	0.536138	0.418739	0.204227
266888351	C	0.50406	0.505196	0.217061
266888351	C	0.503304	0.522042	0.247723
266888351	C	0.512015	0.522622	0.207847
266888351	C	0.514136	0.538048	0.240521
266888351	C	0.517104	0.538846	0.219665
266888351	C	0.499099	0.505619	0.236769
266888351	H	0.525534	0.550357	0.214423
266888351	H	0.50359	0.490715	0.20911
266888351	H	0.462643	0.501524	0.198427
266888351	H	0.492325	0.458769	0.158843
266888351	O	0.484763	0.421021	0.284156
266888351	C	0.478203	0.404852	0.27711
266888351	O	0.552385	0.373481	0.259018
266888351	C	0.484247	0.384744	0.309649
266888351	C	0.47761	0.385928	0.28912
266888351	C	0.476074	0.367302	0.278945
266888351	C	0.488618	0.365866	0.31931
266888351	H	0.48392	0.3977	0.318671
266888351	H	0.548674	0.37614	0.245479
266888351	C	0.447776	0.469452	0.283149
266888351	O	0.459868	0.456625	0.288944
266888351	Fe	0.48587	0.450223	0.271562
266888351	O	0.504183	0.457102	0.295519
266888351	H	0.502471	0.44555	0.302957
266888351	H	0.517448	0.457258	0.290743
266888351	O	0.581736	0.441814	0.310751
266888351	H	0.576028	0.428237	0.307443
266888351	H	0.571903	0.450829	0.304076
266888351	O	0.508826	0.535583	0.297475
266888351	O	0.508276	0.554944	0.324717
266888351	C	0.502413	0.539939	0.314521
266888351	Fe	0.531402	0.573894	0.322192
266888351	O	0.567671	0.530501	0.291146
266888351	O	0.572411	0.554103	0.267771
266888351	C	0.578567	0.539554	0.278947
266888351	Fe	0.539013	0.532977	0.293528
266888351	O	0.541493	0.561455	0.297581
266888351	O	0.537164	0.501822	0.290749
266888351	O	0.542633	0.527718	0.321552
266888351	O	0.53703	0.534577	0.263603
266888351	C	0.548484	0.536556	0.336582
266888351	H	0.54025	0.497231	0.277131
266888351	H	0.549071	0.49714	0.29832
266888351	H	0.550315	0.449979	0.260947
266888351	H	0.503895	0.52027	0.263339
266888351	O	0.475564	0.5747	0.284334
266888351	O	0.452124	0.47798	0.267815
266888351	O	0.588821	0.444802	0.269311
266888351	O	0.5042	0.361177	0.236347
266888351	H	0.513047	0.50157	0.316302
266888351	C	0.491464	0.524997	0.32549
266888351	O	0.548275	0.555772	0.338551
266888351	C	0.5902	0.451774	0.251641
266888351	O	0.552278	0.353247	0.296379
266888351	H	0.517186	0.368324	0.236779
266888351	H	0.546722	0.424002	0.13008
266888351	C	0.453272	0.444939	0.149071
266888351	H	0.566749	0.437786	0.125607
266888351	C	0.453173	0.454683	0.182385
266888351	O	0.451429	0.578548	0.308118
266888351	O	0.467372	0.545158	0.125094
266888351	Fe	0.552623	0.577242	0.276249
266888351	C	0.48291	0.473789	0.111945
266888351	C	0.511879	0.518637	0.114787
266888351	O	0.440114	0.51383	0.1646
266888351	H	0.491755	0.375747	0.116738
266888351	O	0.442659	0.4535	0.214859
266888351	H	0.45929	0.367628	0.158345
266888351	H	0.486645	0.362863	0.133371
266888351	O	0.440406	0.415969	0.235306
266888351	O	0.44123	0.506822	0.133571
266888351	C	0.443967	0.473018	0.177201
266888351	O	0.494066	0.517939	0.108818
266888351	H	0.529023	0.552889	0.12058
266888351	C	0.442393	0.47877	0.157372
266888351	H	0.481854	0.430951	0.110055
266888351	H	0.477441	0.579352	0.10756
266888351	O	0.449777	0.378235	0.155262
266888351	C	0.438918	0.500763	0.151289
266888351	C	0.445704	0.46363	0.142547
266888351	C	0.484978	0.350791	0.286761
266888351	O	0.450676	0.353303	0.119955
266888351	C	0.477218	0.589074	0.120034
266888351	C	0.463345	0.586751	0.293335
266888351	H	0.45135	0.563944	0.307525
266888351	C	0.534294	0.546585	0.10668
266888351	C	0.501318	0.506461	0.327097
266888351	C	0.527093	0.52715	0.101318
266888351	O	0.517824	0.352901	0.275382
266888351	H	0.438047	0.482257	0.187924
266888351	H	0.456212	0.390457	0.161012
266888351	O	0.562517	0.357407	0.150523
266888351	H	0.469998	0.585643	0.16957
266888351	O	0.573199	0.585071	0.296396
266888351	C	0.523254	0.357332	0.181555
266888351	C	0.491753	0.362715	0.340928
266888351	H	0.55362	0.367987	0.296939
266888351	O	0.591345	0.368683	0.119549
266888351	O	0.5485	0.590017	0.105192
266888351	C	0.487653	0.349126	0.306782
266888351	O	0.592656	0.417234	0.1906
266888351	O	0.591897	0.385378	0.15946
266888351	H	0.588796	0.378985	0.25122
266888351	H	0.440193	0.465518	0.128367
266888351	H	0.589773	0.502453	0.287278
266888351	C	0.592396	0.385245	0.111587
266888351	O	0.589824	0.401731	0.120314
266888351	Fe	0.592655	0.358808	0.147799
266888351	H	0.592186	0.441889	0.214118
266888351	H	0.435841	0.468668	0.323399
266888351	O	0.515439	0.59309	0.306548
266888351	C	0.526401	0.351495	0.161996
266888351	H	0.594978	0.354053	0.320442
266888351	C	0.428711	0.476149	0.293181
266888351	H	0.610146	0.542797	0.0978243
266888351	H	0.581047	0.376422	0.198576
266888351	H	0.469787	0.544144	0.335907
266888351	C	0.496858	0.493826	0.342789
266888351	O	0.590189	0.34711	0.30828
266888351	H	0.760315	0.402986	0.300356
266888351	C	0.571215	0.594088	0.313047
266888351	O	0.59454	0.346679	0.175407
266888351	O	0.670622	0.592918	0.239054
266888351	O	0.722883	0.594343	0.28158
266888351	F	0.429948	0.482624	0.236192
266888351	C	0.476151	0.529923	0.338669
266888351	F	0.434257	0.553579	0.253609
266888351	O	0.527249	0.474689	0.336498
266888351	O	0.428774	0.42008	0.146751
266888351	H	0.755868	0.584201	0.21358
266888351	C	0.481119	0.458827	0.0948533
266888351	H	0.563293	0.467817	0.095549
266888351	H	0.587921	0.492983	0.113602
266888351	O	0.464437	0.393816	0.0972837
266888351	C	0.65306	0.345259	0.132904
266888351	O	0.595812	0.375387	0.201331
266888351	C	0.440533	0.346518	0.105094
266888351	H	0.649918	0.516071	0.133792
266888351	H	0.582549	0.459093	0.104638
266888351	O	0.756935	0.505531	0.109567
266888351	C	0.476341	0.438176	0.0972844
266888351	Fe	0.67669	0.545578	0.178147
266888351	C	0.751756	0.518503	0.097832
266888351	C	0.647087	0.344863	0.294734
266888351	O	0.566055	0.593747	0.253727
266888351	Fe	0.761083	0.461261	0.287521
266888351	C	0.650975	0.347709	0.153487
266888351	O	0.722464	0.478654	0.34212
266888351	F	0.625316	0.491822	0.173811
266888351	C	0.664308	0.52153	0.244014
266888351	H	0.533547	0.461185	0.338548
266888351	F	0.629808	0.432648	0.223798
266888351	O	0.720999	0.503309	0.321257
266888351	C	0.700317	0.477934	0.257553
266888351	H	0.568408	0.349444	0.342823
266888351	O	0.671293	0.349133	0.0953965
266888351	Fe	0.648784	0.506282	0.169505
266888351	O	0.672909	0.427562	0.283176
266888351	C	0.67037	0.473579	0.154844
266888351	H	0.597241	0.380356	0.215017
266888351	C	0.742556	0.38803	0.227026
266888351	O	0.760103	0.508028	0.338059
266888351	H	0.647793	0.441807	0.166867
266888351	O	0.619733	0.440659	0.318583
266888351	H	0.698952	0.571394	0.336128
266888351	H	0.646537	0.356571	0.122918
266888351	H	0.64829	0.389037	0.329648
266888351	O	0.685717	0.481239	0.147696
266888351	O	0.692887	0.528322	0.200522
266888351	Fe	0.745864	0.460636	0.336451
266888351	O	0.730535	0.382297	0.15472
266888351	C	0.624484	0.409028	0.33524
266888351	O	0.630825	0.369396	0.175935
266888351	O	0.607649	0.413051	0.289496
266888351	C	0.689045	0.545895	0.254072
266888351	O	0.659485	0.560018	0.157222
266888351	H	0.628577	0.375144	0.0975525
266888351	H	0.694596	0.523227	0.302643
266888351	H	0.679912	0.582435	0.340667
266888351	O	0.70584	0.56839	0.295617
266888351	F	0.699362	0.354597	0.290678
266888351	H	0.658535	0.563162	0.217231
266888351	H	0.726741	0.480991	0.161093
266888351	C	0.628207	0.37496	0.282516
266888351	C	0.714858	0.402968	0.324592
266888351	C	0.630501	0.438741	0.140556
266888351	H	0.613151	0.441876	0.11265
266888351	O	0.624944	0.410578	0.161425
266888351	C	0.602624	0.51267	0.286408
266888351	H	0.612745	0.560093	0.272662
266888351	C	0.748493	0.573107	0.315394
266888351	O	0.715456	0.418551	0.241408
266888351	C	0.685096	0.580553	0.240412
266888351	O	0.726788	0.444154	0.320609
266888351	O	0.598485	0.428062	0.15088
266888351	O	0.598568	0.497421	0.105232
266888351	C	0.68532	0.48541	0.226487
266888351	Fe	0.65521	0.450052	0.295081
266888351	H	0.620509	0.529765	0.178298
266888351	C	0.68123	0.558698	0.239618
266888351	O	0.684797	0.571438	0.331436
266888351	O	0.654035	0.416921	0.253366
266888351	C	0.655296	0.465944	0.122562
266888351	C	0.638817	0.459825	0.111536
266888351	O	0.609373	0.415522	0.256199
266888351	C	0.71661	0.490423	0.254268
266888351	C	0.712448	0.559047	0.101374
266888351	C	0.734855	0.533062	0.125799
266888351	O	0.662624	0.354312	0.299585
266888351	O	0.639042	0.47639	0.304548
266888351	H	0.736636	0.362522	0.343759
266888351	H	0.719127	0.390429	0.149238
266888351	O	0.648517	0.427849	0.315433
266888351	O	0.674261	0.520635	0.164496
266888351	H	0.681892	0.433779	0.273994
266888351	O	0.653101	0.458575	0.243118
266888351	O	0.66347	0.479097	0.171255
266888351	H	0.723549	0.485802	0.137146
266888351	O	0.717474	0.530331	0.165544
266888351	C	0.713882	0.54555	0.155868
266888351	C	0.731201	0.410738	0.313345
266888351	F	0.748787	0.530699	0.307818
266888351	O	0.682513	0.572137	0.192996
266888351	C	0.666572	0.467179	0.254221
266888351	C	0.722284	0.577637	0.290681
266888351	C	0.621525	0.506482	0.292825
266888351	H	0.691817	0.3624	0.141595
266888351	Fe	0.606906	0.442791	0.293179
266888351	H	0.727239	0.385518	0.227123
266888351	O	0.726385	0.491723	0.151083
266888351	H	0.701622	0.411067	0.325229
266888351	O	0.69928	0.555386	0.160083
266888351	O	0.629825	0.531979	0.166751
266888351	H	0.700478	0.468835	0.271147
266888351	O	0.666101	0.467051	0.273139
266888351	H	0.607619	0.583593	0.307577
266888351	C	0.652206	0.527267	0.206813
266888351	C	0.755597	0.373597	0.219838
266888351	C	0.636639	0.521282	0.293782
266888351	C	0.658585	0.459756	0.142007
266888351	C	0.733694	0.431669	0.308578
266888351	C	0.735754	0.531774	0.104729
266888351	H	0.650064	0.566774	0.165529
266888351	C	0.602636	0.351871	0.258913
266888351	C	0.599361	0.531972	0.279346
266888351	O	0.686336	0.370004	0.323889
266888351	O	0.738852	0.441218	0.230453
266888351	H	0.64269	0.409173	0.196905
266888351	H	0.672864	0.484487	0.217035
266888351	C	0.754613	0.570122	0.280181
266888351	Fe	0.75066	0.503749	0.310201
266888351	O	0.737212	0.470673	0.272906
266888351	H	0.636529	0.384125	0.293453
266888351	H	0.696405	0.5701	0.19727
266888351	H	0.74358	0.522847	0.135239
266888351	O	0.608062	0.472792	0.294221
266888351	C	0.626774	0.444887	0.120151
266888351	O	0.646015	0.502977	0.139661
266888351	C	0.699911	0.510208	0.20253
266888351	H	0.737854	0.574343	0.327834
266888351	O	0.703591	0.354314	0.140522
266888351	C	0.716534	0.384733	0.333919
266888351	O	0.66284	0.559842	0.29642
266888351	O	0.651912	0.509277	0.199995
266888351	Fe	0.700208	0.506348	0.157981
266888351	C	0.697633	0.373464	0.339204
266888351	H	0.676321	0.470729	0.319213
266888351	H	0.664225	0.476928	0.114871
266888351	C	0.634148	0.540414	0.284362
266888351	O	0.752862	0.47543	0.311778
266888351	O	0.729932	0.363988	0.195441
266888351	O	0.680037	0.458059	0.312068
266888351	C	0.684911	0.518589	0.277133
266888351	Fe	0.630942	0.437686	0.250275
266888351	H	0.658583	0.506963	0.245268
266888351	O	0.606856	0.456784	0.244998
266888351	C	0.716589	0.501126	0.236129
266888351	H	0.667569	0.570841	0.150428
266888351	C	0.609633	0.405201	0.272347
266888351	H	0.748075	0.568598	0.265201
266888351	C	0.600993	0.372272	0.259572
266888351	F	0.695856	0.374473	0.176158
266888351	C	0.649361	0.557263	0.283417
266888351	C	0.617267	0.425486	0.151744
266888351	Fe	0.717525	0.358131	0.167853
266888351	Fe	0.611228	0.393268	0.181256
266888351	O	0.646854	0.569739	0.269851
266888351	H	0.711274	0.361815	0.130352
266888351	H	0.72762	0.51211	0.233001
266888351	C	0.634273	0.390995	0.336703
266888351	C	0.623013	0.484584	0.297673
266888351	C	0.631497	0.426711	0.323447
266888351	C	0.749412	0.380111	0.320009
266888351	O	0.631343	0.442892	0.278431
266888351	H	0.648355	0.404729	0.246909
266888351	C	0.747449	0.397538	0.310039
266888351	O	0.620495	0.360764	0.144951
266888351	C	0.679489	0.527994	0.258541
266888351	Fe	0.681476	0.584463	0.30396
266888351	H	0.639923	0.388857	0.207636
266888351	H	0.682519	0.582904	0.183682
266888351	H	0.631347	0.502667	0.136159
266888351	H	0.708574	0.43146	0.243215
266888351	H	0.650559	0.516726	0.299385
266888351	C	0.630985	0.35379	0.28212
266888351	C	0.714871	0.49505	0.336931
266888351	H	0.739448	0.35021	0.107324
266888351	H	0.700059	0.569982	0.127962
266888351	C	0.684316	0.477025	0.245067
266888351	O	0.702043	0.498734	0.187193
266888351	O	0.650696	0.5408	0.193833
266888351	C	0.612739	0.383854	0.271585
266888351	C	0.722029	0.547694	0.1348
266888351	O	0.632674	0.401098	0.20386
266888351	C	0.71077	0.560284	0.122313
266888351	C	0.748527	0.407437	0.229364
266888351	C	0.6468	0.445097	0.150605
266888351	O	0.697102	0.514535	0.12912
266888351	C	0.61515	0.545266	0.277275
266888351	O	0.614737	0.529556	0.100724
266888351	C	0.666081	0.552418	0.226964
266888351	H	0.70118	0.550897	0.263475
266888351	C	0.733981	0.423283	0.23408
266888351	O	0.701998	0.586842	0.245537
266888351	O	0.740117	0.503116	0.279918
266888351	C	0.735131	0.37485	0.333729
266888351	O	0.696543	0.529178	0.289774
266888351	O	0.746608	0.43559	0.29589
266888351	H	0.680688	0.422146	0.294136
266888351	H	0.691817	0.459949	0.304105
266888351	O	0.677405	0.502284	0.281991
266888351	C	0.633175	0.360688	0.158824
266888351	C	0.732142	0.488161	0.270229
266888351	C	0.701164	0.498789	0.222288
266888351	C	0.659963	0.533085	0.226797
266888351	H	0.682102	0.514873	0.126409
266888351	H	0.62317	0.529182	0.112373
266888351	C	0.74147	0.570304	0.296224
266888351	C	0.748116	0.361766	0.202602
266888351	O	0.554897	0.594365	0.322762
266888351	C	0.472356	0.592711	0.155352
266888351	H	0.5418	0.349234	0.305639
266888351	H	0.446697	0.530127	0.0972242
266888351	C	0.750265	0.344639	0.0970701
266888351	O	0.429369	0.443601	0.251132
266888351	O	0.761008	0.350803	0.194475
266888351	H	0.759449	0.436156	0.261449
266888351	H	0.59704	0.424325	0.342929
266888351	C	0.605768	0.410741	0.344434
266888351	H	0.653925	0.543582	0.0946599
266888351	O	0.453666	0.517522	0.094636
266888351	C	0.446978	0.50563	0.488521
266888351	Fe	0.5227	0.362533	0.40599
266888351	O	0.521453	0.392033	0.398338
266888351	C	0.504992	0.40105	0.40042
266888351	O	0.492659	0.399687	0.386241
266888351	O	0.545974	0.354976	0.383187
266888351	O	0.500282	0.356478	0.38759
266888351	Fe	0.477238	0.375864	0.379266
266888351	O	0.501098	0.367591	0.427505
266888351	O	0.453187	0.394483	0.371107
266888351	O	0.464979	0.375617	0.407839
266888351	F	0.543547	0.368566	0.423747
266888351	C	0.47856	0.414547	0.425501
266888351	C	0.498156	0.409057	0.420127
266888351	H	0.467391	0.417332	0.415229
266888351	H	0.461013	0.36179	0.410626
266888351	O	0.44375	0.535575	0.365883
266888351	C	0.452761	0.519153	0.365438
266888351	O	0.504522	0.563171	0.41235
266888351	O	0.483484	0.540813	0.429248
266888351	C	0.486419	0.556463	0.418057
266888351	Fe	0.533976	0.559633	0.421781
266888351	O	0.51259	0.51733	0.408561
266888351	O	0.543967	0.578479	0.399099
266888351	O	0.539063	0.536124	0.405559
266888351	C	0.52889	0.52163	0.400397
266888351	H	0.485311	0.48816	0.445782
266888351	H	0.496211	0.486283	0.425137
266888351	C	0.451607	0.559314	0.40567
266888351	C	0.469113	0.568793	0.41156
266888351	H	0.45043	0.54187	0.406091
266888351	C	0.553623	0.498709	0.385559
266888351	C	0.536843	0.512227	0.383427
266888351	H	0.554165	0.489476	0.39824
266888351	O	0.443653	0.413719	0.469453
266888351	C	0.449819	0.41713	0.451831
266888351	Fe	0.56461	0.389615	0.480269
266888351	O	0.538185	0.39484	0.465975
266888351	C	0.521107	0.400622	0.471138
266888351	O	0.516541	0.402578	0.489355
266888351	O	0.547997	0.364497	0.538906
266888351	O	0.519302	0.389724	0.530831
266888351	H	0.520314	0.377499	0.523306
266888351	O	0.557651	0.360025	0.482706
266888351	Fe	0.572547	0.381303	0.528139
266888351	O	0.555208	0.394156	0.507351
266888351	Fe	0.532562	0.412048	0.512365
266888351	O	0.571264	0.420122	0.478931
266888351	O	0.54705	0.424148	0.537698
266888351	O	0.567627	0.402515	0.549749
266888351	C	0.551465	0.412279	0.551522
266888351	F	0.57203	0.386284	0.454457
266888351	H	0.533983	0.463803	0.472647
266888351	C	0.540045	0.38782	0.576655
266888351	C	0.536663	0.405479	0.566668
266888351	C	0.518303	0.415471	0.569439
266888351	C	0.511773	0.406074	0.435665
266888351	C	0.505337	0.404679	0.455981
266888351	C	0.471387	0.414062	0.44629
266888351	C	0.48554	0.408916	0.461263
266888351	H	0.48072	0.408218	0.476071
266888351	H	0.527096	0.402158	0.43238
266888351	H	0.490782	0.357632	0.42433
266888351	H	0.504527	0.392681	0.531181
266888351	O	0.57802	0.505705	0.570274
266888351	Fe	0.575708	0.525174	0.523348
266888351	O	0.566274	0.552726	0.509347
266888351	O	0.553165	0.563221	0.576752
266888351	O	0.549122	0.516838	0.528635
266888351	Fe	0.565522	0.5348	0.571817
266888351	O	0.576519	0.542185	0.5465
266888351	O	0.538449	0.524777	0.560063
266888351	C	0.535446	0.520143	0.541033
266888351	F	0.573433	0.509619	0.501009
266888351	O	0.56387	0.55772	0.431884
266888351	O	0.557667	0.554795	0.463939
266888351	C	0.569707	0.557395	0.449629
266888351	Fe	0.527804	0.547805	0.468972
266888351	O	0.499345	0.543344	0.476144
266888351	C	0.495866	0.526108	0.481348
266888351	O	0.496594	0.513423	0.467769
266888351	O	0.51705	0.575049	0.464439
266888351	O	0.523409	0.542302	0.442293
266888351	Fe	0.505658	0.519167	0.438295
266888351	O	0.539102	0.519413	0.472335
266888351	O	0.486804	0.495103	0.432494
266888351	O	0.528275	0.500109	0.4473
266888351	C	0.539212	0.503776	0.462417
266888351	F	0.531673	0.551897	0.49471
266888351	O	0.509174	0.431314	0.519139
266888351	O	0.545098	0.432885	0.495546
266888351	C	0.560626	0.434715	0.484245
266888351	H	0.504193	0.426949	0.532536
266888351	H	0.498408	0.429223	0.508746
266888351	O	0.452809	0.57686	0.561227
266888351	O	0.448868	0.544578	0.536514
266888351	O	0.467254	0.537097	0.563693
266888351	C	0.464277	0.537295	0.544884
266888351	H	0.517415	0.430284	0.56499
266888351	C	0.499016	0.523195	0.542635
266888351	C	0.512948	0.51315	0.510994
266888351	C	0.48102	0.529969	0.533064
266888351	C	0.495397	0.520614	0.501883
266888351	C	0.479868	0.528665	0.51286
266888351	C	0.51501	0.516323	0.531663
266888351	H	0.526716	0.508538	0.503254
266888351	H	0.466619	0.533777	0.505388
266888351	H	0.501094	0.524182	0.558497
266888351	C	0.573751	0.492786	0.466172
266888351	C	0.565471	0.454243	0.476624
266888351	C	0.554152	0.488238	0.468951
266888351	C	0.54978	0.468322	0.472404
266888351	H	0.576845	0.508363	0.460119
266888351	O	0.454781	0.489449	0.482068
266888351	H	0.452839	0.383512	0.40717
266888351	H	0.480224	0.48797	0.367919
266888351	O	0.437853	0.423157	0.438831
266888351	H	0.569238	0.516455	0.424577
266888351	O	0.44475	0.509118	0.508395
266888351	C	0.56303	0.571437	0.513801
266888351	O	0.506883	0.361224	0.482913
266888351	C	0.562918	0.578993	0.577427
266888351	H	0.453054	0.499625	0.516153
266888351	C	0.502224	0.406864	0.579321
266888351	O	0.579909	0.580698	0.569122
266888351	O	0.577734	0.356946	0.508471
266888351	O	0.568898	0.578912	0.529166
266888351	H	0.554122	0.381052	0.577278
266888351	C	0.482287	0.498241	0.355779
266888351	C	0.569745	0.499648	0.372074
266888351	H	0.522062	0.530711	0.361625
266888351	C	0.534358	0.522342	0.36538
266888351	O	0.444033	0.503727	0.371738
266888351	C	0.523809	0.376822	0.584078
266888351	C	0.471299	0.516199	0.35347
266888351	O	0.581808	0.523193	0.422103
266888351	Fe	0.453642	0.555337	0.581889
266888351	H	0.581128	0.529579	0.408477
266888351	C	0.584719	0.493466	0.557602
266888351	C	0.568334	0.512007	0.355456
266888351	O	0.581193	0.480357	0.420807
266888351	C	0.55115	0.524348	0.353595
266888351	O	0.585044	0.498211	0.538738
266888351	C	0.585669	0.458931	0.471913
266888351	O	0.456537	0.355702	0.371258
266888351	H	0.583665	0.562257	0.482913
266888351	C	0.58913	0.478482	0.466084
266888351	H	0.555734	0.356566	0.54835
266888351	C	0.563844	0.350184	0.497763
266888351	C	0.525834	0.355333	0.587993
266888351	C	0.434284	0.571015	0.401633
266888351	H	0.441182	0.545707	0.49337
266888351	H	0.587111	0.466926	0.423089
266888351	C	0.591134	0.556861	0.453685
266888351	C	0.529161	0.587602	0.456994
266888351	C	0.440271	0.521009	0.473782
266888351	C	0.47145	0.589205	0.405957
266888351	O	0.532403	0.586499	0.438451
266888351	O	0.486983	0.377581	0.351396
266888351	C	0.505548	0.38688	0.585683
266888351	C	0.437577	0.5865	0.559704
266888351	H	0.455444	0.407567	0.376508
266888351	H	0.455051	0.396921	0.356682
266888351	H	0.528529	0.58789	0.497471
266888351	H	0.474877	0.370904	0.498493
266888351	O	0.438829	0.582033	0.481165
266888351	O	0.504897	0.46256	0.35878
266888351	Fe	0.59126	0.567983	0.543998
266888351	H	0.536378	0.574391	0.38725
266888351	H	0.557117	0.571588	0.397899
266888351	C	0.589818	0.494379	0.37985
266888351	O	0.573454	0.383182	0.381094
266888351	C	0.579433	0.397184	0.368665
266888351	C	0.489172	0.353074	0.479857
266888351	C	0.435659	0.540999	0.479711
266888351	C	0.436561	0.590989	0.402008
266888351	C	0.560685	0.586817	0.498334
266888351	O	0.472621	0.358015	0.490854
266888351	O	0.434393	0.395496	0.507556
266888351	C	0.50897	0.475293	0.345188
266888351	Fe	0.757876	0.593435	0.402416
266888351	H	0.474495	0.5824	0.495368
266888351	H	0.448147	0.398408	0.503272
266888351	H	0.556426	0.412194	0.376221
266888351	O	0.568373	0.415056	0.368116
266888351	H	0.668362	0.355006	0.39542
266888351	O	0.496459	0.344854	0.347258
266888351	O	0.469606	0.590286	0.506471
266888351	O	0.592077	0.366266	0.54808
266888351	O	0.594755	0.38395	0.487908
266888351	F	0.670553	0.383659	0.549045
266888351	C	0.54263	0.591302	0.490372
266888351	O	0.701075	0.363708	0.562301
266888351	O	0.652815	0.356676	0.361296
266888351	C	0.653602	0.423943	0.499897
266888351	O	0.544147	0.348138	0.588932
266888351	O	0.593698	0.54181	0.58273
266888351	C	0.597634	0.395126	0.356133
266888351	O	0.594753	0.476376	0.381933
266888351	C	0.62657	0.374698	0.347858
266888351	O	0.428098	0.373495	0.47174
266888351	C	0.608272	0.483622	0.455975
266888351	H	0.602643	0.550308	0.424116
266888351	C	0.71719	0.473835	0.574807
266888351	C	0.433623	0.514016	0.454862
266888351	O	0.70404	0.379729	0.415745
266888351	H	0.442741	0.376752	0.468902
266888351	Fe	0.664367	0.488117	0.521362
266888351	C	0.738922	0.450806	0.500836
266888351	C	0.752617	0.462945	0.490799
266888351	C	0.606237	0.550406	0.439979
266888351	H	0.586318	0.369	0.561029
266888351	H	0.430357	0.58683	0.520433
266888351	O	0.647716	0.451445	0.424802
266888351	C	0.637102	0.355967	0.349824
266888351	H	0.681545	0.411168	0.494474
266888351	F	0.667	0.479405	0.446539
266888351	H	0.736043	0.511207	0.402635
266888351	H	0.687479	0.465741	0.415837
266888351	H	0.598018	0.447198	0.473014
266888351	C	0.695332	0.534796	0.466303
266888351	O	0.678817	0.438376	0.520766
266888351	C	0.667883	0.564735	0.477338
266888351	C	0.726427	0.46007	0.516479
266888351	C	0.610813	0.469333	0.552824
266888351	O	0.641352	0.488903	0.377653
266888351	O	0.693777	0.514085	0.557284
266888351	O	0.730083	0.34718	0.413262
266888351	H	0.745271	0.512135	0.531036
266888351	H	0.612322	0.476658	0.538679
266888351	O	0.656443	0.591638	0.499213
266888351	C	0.665974	0.408009	0.493425
266888351	C	0.725427	0.461232	0.405185
266888351	H	0.75637	0.515605	0.412014
266888351	Fe	0.623919	0.465908	0.388137
266888351	O	0.622449	0.48138	0.412678
266888351	F	0.521344	0.584562	0.345271
266888351	C	0.752476	0.422025	0.482389
266888351	C	0.61037	0.451662	0.592434
266888351	O	0.695136	0.363329	0.354857
266888351	H	0.616873	0.434417	0.406418
266888351	C	0.608281	0.546145	0.505304
266888351	C	0.608958	0.377757	0.357704
266888351	C	0.595945	0.466345	0.586106
266888351	C	0.596081	0.558188	0.474045
266888351	H	0.666863	0.532633	0.38689
266888351	O	0.70013	0.566826	0.377317
266888351	H	0.751807	0.439908	0.368966
266888351	H	0.73316	0.43321	0.356256
266888351	O	0.739208	0.44481	0.362363
266888351	H	0.682852	0.418781	0.560323
266888351	H	0.628804	0.4632	0.350509
266888351	H	0.713236	0.509759	0.5928
266888351	O	0.754979	0.545984	0.385112
266888351	O	0.596414	0.397709	0.516611
266888351	C	0.595764	0.475531	0.565641
266888351	H	0.636618	0.443878	0.359451
266888351	H	0.632553	0.370947	0.489067
266888351	C	0.611112	0.546998	0.482964
266888351	O	0.607173	0.442499	0.39932
266888351	C	0.698424	0.411656	0.39902
266888351	Fe	0.603291	0.501561	0.417877
266888351	C	0.68802	0.515109	0.498411
266888351	H	0.681827	0.394692	0.448916
266888351	C	0.70181	0.523874	0.352528
266888351	O	0.73276	0.574197	0.588543
266888351	C	0.638477	0.385971	0.489275
266888351	H	0.729445	0.419847	0.503905
266888351	C	0.698619	0.349618	0.574112
266888351	H	0.604313	0.374496	0.548709
266888351	C	0.70582	0.390446	0.399929
266888351	F	0.744642	0.357097	0.375729
266888351	O	0.667589	0.514827	0.536508
266888351	H	0.638148	0.439219	0.58277
266888351	H	0.602691	0.433746	0.388732
266888351	H	0.664948	0.548886	0.504587
266888351	C	0.671526	0.548942	0.490439
266888351	Fe	0.719632	0.386821	0.440879
266888351	H	0.751214	0.470442	0.400454
266888351	C	0.747079	0.365741	0.499131
266888351	C	0.622265	0.539446	0.447813
266888351	C	0.657963	0.494356	0.386486
266888351	Fe	0.684755	0.362253	0.537263
266888351	O	0.724116	0.479168	0.516114
266888351	C	0.749324	0.402788	0.470001
266888351	Fe	0.707379	0.585605	0.399134
266888351	O	0.72256	0.356652	0.444996
266888351	C	0.702772	0.556423	0.434843
266888351	O	0.734071	0.575667	0.402271
266888351	O	0.744124	0.45794	0.398365
266888351	Fe	0.737974	0.548596	0.408573
266888351	O	0.662071	0.491082	0.405335
266888351	H	0.622818	0.431773	0.504764
266888351	C	0.675973	0.517878	0.55395
266888351	H	0.604756	0.365535	0.3674
266888351	O	0.703219	0.461651	0.571062
266888351	H	0.665206	0.407396	0.405352
266888351	C	0.691244	0.533895	0.367308
266888351	O	0.72463	0.483701	0.560368
266888351	O	0.732895	0.395056	0.468036
266888351	O	0.755508	0.427894	0.434241
266888351	C	0.624181	0.536985	0.469445
266888351	C	0.62547	0.448369	0.578765
266888351	O	0.606789	0.500056	0.446622
266888351	C	0.662912	0.526911	0.57005
266888351	C	0.629212	0.536438	0.579817
266888351	O	0.718395	0.384988	0.387677
266888351	O	0.682807	0.361511	0.48984
266888351	H	0.685346	0.373688	0.454391
266888351	H	0.684173	0.477565	0.359726
266888351	H	0.67299	0.576859	0.448487
266888351	C	0.738962	0.429375	0.496154
266888351	C	0.604852	0.394117	0.499578
266888351	C	0.685117	0.493651	0.360801
266888351	O	0.599848	0.507686	0.388365
266888351	Fe	0.644734	0.480413	0.430394
266888351	C	0.690554	0.550672	0.453185
266888351	O	0.624928	0.452164	0.359669
266888351	C	0.672912	0.503946	0.374442
266888351	H	0.716831	0.4249	0.448403
266888351	Fe	0.691156	0.451676	0.544409
266888351	C	0.624885	0.400902	0.494617
266888351	C	0.647034	0.461924	0.553714
266888351	H	0.727992	0.422217	0.39259
266888351	C	0.748987	0.578728	0.5791
266888351	O	0.696307	0.422053	0.555094
266888351	C	0.745566	0.376592	0.517469
266888351	O	0.709371	0.378101	0.525488
266888351	O	0.691591	0.386511	0.455826
266888351	C	0.631911	0.524526	0.433402
266888351	C	0.633092	0.419878	0.500103
266888351	O	0.744687	0.386624	0.424199
266888351	C	0.690954	0.450738	0.410676
266888351	O	0.613096	0.554641	0.557837
266888351	C	0.709722	0.446208	0.404036
266888351	C	0.727196	0.371782	0.529481
266888351	C	0.670121	0.372105	0.498242
266888351	O	0.688549	0.478642	0.533525
266888351	O	0.661299	0.450187	0.556735
266888351	O	0.649034	0.477678	0.544034
266888351	H	0.634789	0.527864	0.475513
266888351	C	0.676242	0.564159	0.458135
266888351	H	0.697168	0.414359	0.542133
266888351	C	0.642532	0.525851	0.566564
266888351	O	0.677539	0.499566	0.496814
266888351	O	0.721585	0.478046	0.412796
266888351	C	0.663728	0.442435	0.509903
266888351	O	0.604138	0.561418	0.515212
266888351	O	0.623914	0.522744	0.416737
266888351	C	0.675751	0.436885	0.41041
266888351	C	0.676329	0.524284	0.377592
266888351	Fe	0.744867	0.371204	0.398595
266888351	O	0.699262	0.516427	0.512751
266888351	C	0.65677	0.584769	0.48191
266888351	H	0.636943	0.518933	0.554231
266888351	C	0.626821	0.458445	0.56137
266888351	C	0.713027	0.426913	0.396045
266888351	H	0.752115	0.479101	0.490644
266888351	C	0.659053	0.388157	0.489278
266888351	C	0.655751	0.446564	0.409532
266888351	C	0.669662	0.534773	0.58824
266888351	H	0.737353	0.521428	0.551572
266888351	O	0.733533	0.518287	0.537105
266888351	O	0.742013	0.517534	0.414686
266888351	Fe	0.7105	0.49787	0.536538
266888351	O	0.658803	0.461375	0.507035
266888351	O	0.649862	0.451716	0.392719
266888351	C	0.610559	0.54388	0.573071
266888351	O	0.624071	0.472105	0.453328
266888351	O	0.720611	0.550874	0.433824
266888351	C	0.701897	0.548084	0.37927
266888351	C	0.67858	0.417407	0.403981
266888351	O	0.714379	0.539558	0.390264
266888351	O	0.694667	0.566905	0.421149
266888351	O	0.715277	0.416862	0.435624
266888351	H	0.679317	0.382709	0.58631
266888351	C	0.685102	0.533168	0.484504
266888351	O	0.730584	0.357681	0.541521
266888351	H	0.734601	0.362655	0.490339
266888351	H	0.74954	0.399114	0.371783
266888351	F	0.641127	0.498014	0.510947
266888351	H	0.706075	0.523242	0.462203
266888351	O	0.718743	0.448754	0.529965
266888351	H	0.748092	0.425748	0.422129
266888351	O	0.641492	0.509535	0.440084
266888351	O	0.681397	0.350486	0.391529
266888351	O	0.665157	0.368371	0.515761
266888351	O	0.6042	0.529852	0.513695
266888351	H	0.491578	0.559954	0.587766
266888351	O	0.759133	0.392977	0.382076
266888351	H	0.437565	0.498819	0.449459
266888351	H	0.580338	0.513077	0.34483
266888351	O	0.443872	0.508734	0.59361
266888351	C	0.686786	0.353247	0.592913
266888351	O	0.429703	0.540992	0.572384
266888351	C	0.698982	0.504374	0.348601
266888351	H	0.433649	0.380949	0.509852
266888351	H	0.713742	0.531025	0.344967
266888351	O	0.480219	0.569393	0.589864
266888351	H	0.617965	0.591473	0.548255
266888351	H	0.685575	0.535409	0.591795
266888351	C	0.488459	0.418877	0.59275
266888351	H	0.493325	0.378675	0.592804
266888351	H	0.485652	0.594121	0.40235
266888351	O	0.563719	0.39664	0.738351
266888351	C	0.548573	0.406096	0.732637
266888351	O	0.534794	0.411369	0.744497
266888351	O	0.439824	0.421132	0.660613
266888351	O	0.49655	0.429525	0.679396
266888351	Fe	0.469437	0.425405	0.66726
266888351	O	0.477412	0.430529	0.639736
266888351	Fe	0.502759	0.419888	0.630933
266888351	O	0.528842	0.407306	0.618991
266888351	O	0.486928	0.393985	0.629857
266888351	O	0.45952	0.42028	0.695899
266888351	O	0.473294	0.395366	0.660711
266888351	C	0.477583	0.386443	0.644246
266888351	H	0.463329	0.432406	0.702417
266888351	H	0.538516	0.403377	0.628831
266888351	C	0.530033	0.417214	0.703741
266888351	C	0.565222	0.411607	0.700749
266888351	C	0.529872	0.42179	0.683262
266888351	C	0.565258	0.417664	0.680857
266888351	C	0.547575	0.424773	0.672318
266888351	C	0.547474	0.411653	0.711962
266888351	H	0.57907	0.40512	0.706839
266888351	H	0.516823	0.417633	0.712054
266888351	C	0.452664	0.358597	0.647432
266888351	C	0.471702	0.364911	0.642388
266888351	H	0.441637	0.368443	0.651006
266888351	O	0.546046	0.535365	0.680542
266888351	O	0.556399	0.543877	0.711598
266888351	C	0.558607	0.535324	0.693805
266888351	Fe	0.530989	0.557463	0.72726
266888351	O	0.504802	0.56951	0.739758
266888351	C	0.487885	0.560489	0.741301
266888351	O	0.485303	0.544383	0.73142
266888351	O	0.505416	0.576073	0.67843
266888351	O	0.480179	0.555857	0.690484
266888351	C	0.487446	0.573167	0.684333
266888351	O	0.536791	0.585256	0.715841
266888351	Fe	0.526042	0.556935	0.677654
266888351	O	0.517833	0.548458	0.703738
266888351	Fe	0.496125	0.531929	0.705897
266888351	O	0.527494	0.530659	0.741658
266888351	O	0.471574	0.513354	0.707023
266888351	O	0.512611	0.50943	0.721428
266888351	C	0.524704	0.513335	0.735886
266888351	O	0.505034	0.515849	0.681314
266888351	O	0.534904	0.566589	0.649502
266888351	O	0.507267	0.539679	0.661023
266888351	C	0.501712	0.522226	0.664271
266888351	H	0.547362	0.560573	0.646824
266888351	H	0.473474	0.504784	0.695435
266888351	H	0.474336	0.504	0.7182
266888351	F	0.545562	0.565078	0.749245
266888351	O	0.565985	0.435409	0.758771
266888351	Fe	0.457634	0.43584	0.619308
266888351	H	0.510201	0.45435	0.643097
266888351	O	0.518469	0.446231	0.634005
266888351	O	0.510316	0.410096	0.658183
266888351	C	0.511414	0.420727	0.673325
266888351	O	0.446901	0.454457	0.640918
266888351	O	0.463914	0.455217	0.668929
266888351	C	0.457658	0.463864	0.653546
266888351	H	0.467668	0.408964	0.700816
266888351	C	0.480165	0.492527	0.65817
266888351	C	0.48147	0.518192	0.632455
266888351	C	0.463963	0.483968	0.648592
266888351	C	0.466436	0.50882	0.621955
266888351	C	0.456653	0.493098	0.630611
266888351	C	0.488702	0.509971	0.650762
266888351	H	0.487896	0.531346	0.625925
266888351	H	0.486272	0.486045	0.672189
266888351	C	0.450359	0.56036	0.74638
266888351	C	0.469071	0.569769	0.749984
266888351	H	0.449674	0.54618	0.738943
266888351	C	0.538887	0.49794	0.745905
266888351	C	0.535175	0.478662	0.751787
266888351	H	0.52035	0.473843	0.749274
266888351	H	0.547098	0.428905	0.655965
266888351	C	0.574134	0.504676	0.684888
266888351	C	0.575552	0.525064	0.686899
266888351	H	0.563203	0.497031	0.69352
266888351	O	0.526249	0.376664	0.767337
266888351	Fe	0.56665	0.378169	0.798564
266888351	O	0.559534	0.397547	0.777858
266888351	Fe	0.532231	0.406031	0.77401
266888351	O	0.501978	0.41362	0.769428
266888351	O	0.525858	0.401704	0.803632
266888351	H	0.496593	0.402387	0.77741
266888351	H	0.499272	0.408592	0.756061
266888351	Fe	0.445205	0.413245	0.800984
266888351	O	0.466353	0.423877	0.782483
266888351	O	0.464235	0.390437	0.810506
266888351	C	0.536228	0.550064	0.822474
266888351	O	0.551254	0.552325	0.810069
266888351	Fe	0.581935	0.555011	0.814542
266888351	O	0.589709	0.526484	0.809118
266888351	C	0.584067	0.510669	0.817449
266888351	O	0.537785	0.4364	0.776495
266888351	C	0.551083	0.44448	0.765314
266888351	O	0.458353	0.433176	0.822946
266888351	H	0.471822	0.436627	0.788019
266888351	H	0.460288	0.428208	0.769821
266888351	C	0.558849	0.50627	0.748685
266888351	C	0.551272	0.466662	0.760079
266888351	H	0.560821	0.521489	0.743899
266888351	C	0.518921	0.578929	0.805872
266888351	C	0.518148	0.562296	0.818651
266888351	C	0.500713	0.558827	0.829718
266888351	H	0.53291	0.581718	0.797631
266888351	H	0.4429	0.486402	0.623313
266888351	C	0.587188	0.537371	0.673943
266888351	H	0.519537	0.45325	0.620564
266888351	O	0.565991	0.464956	0.675719
266888351	C	0.581875	0.495748	0.667914
266888351	C	0.485977	0.589628	0.818582
266888351	H	0.537906	0.580677	0.650826
266888351	C	0.483458	0.571774	0.829301
266888351	F	0.454408	0.355569	0.716145
266888351	O	0.584651	0.408107	0.651899
266888351	H	0.535973	0.417969	0.612414
266888351	O	0.438528	0.413851	0.629656
266888351	C	0.533671	0.393638	0.818988
266888351	O	0.541577	0.362584	0.793555
266888351	C	0.574321	0.49487	0.756286
266888351	O	0.552113	0.392397	0.820634
266888351	O	0.457632	0.536148	0.603947
266888351	C	0.456208	0.518253	0.604838
266888351	C	0.570403	0.475416	0.762545
266888351	O	0.579156	0.584664	0.81922
266888351	O	0.474121	0.459545	0.609631
266888351	Fe	0.580583	0.407683	0.759979
266888351	O	0.566122	0.510531	0.824638
266888351	H	0.583358	0.568404	0.703949
266888351	H	0.496937	0.401607	0.822173
266888351	C	0.529852	0.362003	0.778517
266888351	O	0.497936	0.429812	0.603473
266888351	C	0.465159	0.377879	0.825338
266888351	O	0.579546	0.359722	0.777966
266888351	O	0.585731	0.55988	0.784294
266888351	C	0.499809	0.387462	0.830242
266888351	O	0.574132	0.358202	0.821204
266888351	C	0.584287	0.415068	0.669693
266888351	H	0.581598	0.467079	0.769857
266888351	C	0.519482	0.382916	0.832896
266888351	O	0.548074	0.576162	0.687715
266888351	C	0.586968	0.583683	0.704846
266888351	C	0.550106	0.586392	0.702724
266888351	O	0.44767	0.57273	0.833426
266888351	H	0.575729	0.355478	0.649593
266888351	O	0.587347	0.387749	0.613772
266888351	C	0.431301	0.568512	0.750783
266888351	C	0.485179	0.374113	0.833485
266888351	C	0.485314	0.349919	0.636623
266888351	H	0.500296	0.354764	0.634317
266888351	C	0.575326	0.475156	0.663373
266888351	C	0.431311	0.587387	0.759784
266888351	O	0.449921	0.370573	0.83413
266888351	O	0.43742	0.573845	0.600997
266888351	C	0.468396	0.588864	0.759138
266888351	H	0.483042	0.359328	0.695306
266888351	O	0.537539	0.540553	0.838573
266888351	H	0.587158	0.554122	0.675132
266888351	H	0.442148	0.571577	0.614811
266888351	O	0.436234	0.36836	0.79576
266888351	F	0.438353	0.443126	0.601526
266888351	H	0.499194	0.352993	0.755677
266888351	C	0.503383	0.592943	0.806582
266888351	H	0.593139	0.375266	0.608766
266888351	O	0.554729	0.528502	0.600312
266888351	C	0.464069	0.566342	0.84039
266888351	H	0.58466	0.396689	0.602188
266888351	C	0.428574	0.345304	0.76021
266888351	C	0.595105	0.502866	0.755757
266888351	H	0.469262	0.46333	0.596149
266888351	Fe	0.760844	0.548633	0.646246
266888351	H	0.572165	0.454025	0.643854
266888351	O	0.579509	0.466464	0.64421
266888351	C	0.429365	0.41773	0.645574
266888351	C	0.478526	0.593633	0.684336
266888351	H	0.566409	0.520728	0.606959
266888351	H	0.584529	0.470826	0.59628
266888351	H	0.554946	0.541471	0.60666
266888351	H	0.578855	0.584206	0.610982
266888351	H	0.478535	0.570501	0.604035
266888351	O	0.577068	0.547621	0.843694
266888351	H	0.433605	0.486257	0.817823
266888351	H	0.575717	0.552221	0.776714
266888351	O	0.432267	0.395306	0.777558
266888351	H	0.498113	0.546556	0.838653
266888351	C	0.723049	0.479945	0.596384
266888351	O	0.470437	0.416706	0.597371
266888351	H	0.562988	0.349524	0.825076
266888351	C	0.594551	0.506603	0.655286
266888351	O	0.594122	0.392897	0.80388
266888351	O	0.646216	0.546607	0.667457
266888351	O	0.712433	0.505018	0.80622
266888351	H	0.441715	0.587147	0.597966
266888351	H	0.706287	0.461935	0.838998
266888351	H	0.599207	0.553008	0.781999
266888351	H	0.697321	0.570539	0.599614
266888351	H	0.669529	0.478385	0.664556
266888351	C	0.733937	0.438713	0.694114
266888351	C	0.67582	0.370677	0.596017
266888351	C	0.689791	0.592644	0.68675
266888351	O	0.750022	0.568469	0.664948
266888351	H	0.645748	0.356913	0.633501
266888351	C	0.715577	0.419622	0.72068
266888351	C	0.64879	0.468172	0.707974
266888351	C	0.456629	0.435096	0.841595
266888351	O	0.698944	0.518997	0.760076
266888351	O	0.760327	0.585814	0.841198
266888351	H	0.622996	0.497911	0.759585
266888351	H	0.674625	0.394007	0.804921
266888351	O	0.724754	0.468847	0.798312
266888351	H	0.7471	0.348959	0.808976
266888351	H	0.475253	0.589721	0.714524
266888351	C	0.593493	0.363443	0.766196
266888351	F	0.689621	0.441783	0.74424
266888351	Fe	0.681142	0.349285	0.803829
266888351	Fe	0.701031	0.352195	0.759271
266888351	Fe	0.627668	0.407541	0.677961
266888351	C	0.607537	0.346633	0.760664
266888351	H	0.645082	0.533255	0.77147
266888351	H	0.653315	0.55456	0.733637
266888351	O	0.743571	0.493722	0.700329
266888351	C	0.651408	0.467787	0.687013
266888351	Fe	0.650499	0.42891	0.639068
266888351	O	0.598068	0.521719	0.753741
266888351	O	0.677629	0.514409	0.661198
266888351	H	0.673386	0.546728	0.727254
266888351	O	0.739714	0.434419	0.67744
266888351	C	0.706538	0.580573	0.68705
266888351	H	0.752655	0.533642	0.680744
266888351	O	0.674127	0.44545	0.628575
266888351	H	0.634344	0.432036	0.782934
266888351	F	0.600134	0.418499	0.74248
266888351	C	0.596968	0.482677	0.839221
266888351	C	0.612049	0.539756	0.645842
266888351	H	0.752207	0.534416	0.772446
266888351	C	0.720668	0.499803	0.601887
266888351	C	0.704619	0.521533	0.803224
266888351	Fe	0.650644	0.523048	0.649113
266888351	C	0.750877	0.454213	0.779897
266888351	C	0.751974	0.566904	0.838921
266888351	H	0.614911	0.396454	0.83107
266888351	O	0.734614	0.569195	0.753997
266888351	O	0.661422	0.466298	0.750488
266888351	C	0.642783	0.412509	0.835392
266888351	C	0.75919	0.461235	0.761364
266888351	O	0.600108	0.419411	0.679006
266888351	O	0.738399	0.383387	0.77838
266888351	H	0.708081	0.426842	0.793687
266888351	H	0.636189	0.51585	0.713442
266888351	C	0.727946	0.527971	0.625123
266888351	C	0.657813	0.422478	0.826559
266888351	H	0.749202	0.586906	0.807567
266888351	C	0.726735	0.544831	0.821881
266888351	C	0.717109	0.426868	0.70142
266888351	H	0.639029	0.457556	0.715376
266888351	O	0.597598	0.380863	0.761221
266888351	O	0.654716	0.365947	0.800149
266888351	O	0.612905	0.558787	0.648958
266888351	O	0.735218	0.534411	0.640864
266888351	O	0.687798	0.482993	0.780391
266888351	C	0.751133	0.462299	0.647067
266888351	O	0.660443	0.498809	0.750517
266888351	H	0.663847	0.544945	0.780274
266888351	C	0.670987	0.407439	0.67621
266888351	C	0.736954	0.494062	0.634296
266888351	H	0.729467	0.48846	0.700668
266888351	H	0.671745	0.424557	0.835163
266888351	C	0.723294	0.587636	0.676955
266888351	O	0.650551	0.498977	0.791415
266888351	Fe	0.697032	0.47887	0.807985
266888351	H	0.715531	0.483768	0.749215
266888351	O	0.629084	0.413394	0.650173
266888351	H	0.697259	0.518033	0.745021
266888351	C	0.658812	0.357612	0.623765
266888351	O	0.731632	0.358608	0.757505
266888351	O	0.598236	0.41823	0.782475
266888351	H	0.737393	0.453021	0.605823
266888351	O	0.625598	0.560461	0.70476
266888351	H	0.615948	0.504409	0.797231
266888351	Fe	0.651108	0.545269	0.695808
266888351	C	0.609651	0.36909	0.663148
266888351	H	0.724063	0.41832	0.8089
266888351	H	0.726319	0.423456	0.733087
266888351	C	0.742809	0.372232	0.763233
266888351	O	0.674593	0.443447	0.780857
266888351	H	0.615394	0.571785	0.809302
266888351	O	0.722277	0.568174	0.648135
266888351	C	0.703025	0.4216	0.687086
266888351	O	0.613232	0.559254	0.816185
266888351	O	0.632235	0.441248	0.617585
266888351	O	0.609865	0.37426	0.644514
266888351	H	0.633862	0.364453	0.766502
266888351	O	0.649807	0.565419	0.629688
266888351	H	0.625652	0.552927	0.606735
266888351	O	0.677445	0.531498	0.689143
266888351	F	0.756579	0.407843	0.654856
266888351	H	0.756509	0.436499	0.806972
266888351	H	0.676449	0.509194	0.718051
266888351	C	0.700022	0.379313	0.832766
266888351	O	0.660772	0.529197	0.835621
266888351	O	0.656341	0.396493	0.679198
266888351	O	0.721205	0.418579	0.794491
266888351	H	0.709651	0.509951	0.764296
266888351	H	0.686116	0.436459	0.626932
266888351	C	0.700723	0.393991	0.74331
266888351	H	0.706101	0.551086	0.776712
266888351	O	0.635453	0.518779	0.699245
266888351	H	0.695415	0.588253	0.614802
266888351	O	0.717203	0.453858	0.769943
266888351	Fe	0.608199	0.401532	0.6322
266888351	C	0.677711	0.514891	0.679772
266888351	F	0.753549	0.540335	0.732347
266888351	C	0.727616	0.570828	0.788921
266888351	C	0.66568	0.480309	0.679297
266888351	O	0.750015	0.469735	0.664891
266888351	O	0.625689	0.530593	0.635956
266888351	O	0.671899	0.348338	0.756895
266888351	O	0.682542	0.451908	0.811353
266888351	O	0.616702	0.380007	0.676924
266888351	C	0.661266	0.373415	0.609961
266888351	O	0.706494	0.402553	0.760018
266888351	H	0.745823	0.497868	0.714829
266888351	C	0.73704	0.5631	0.823095
266888351	C	0.628365	0.350021	0.762932
266888351	C	0.734153	0.467793	0.610453
266888351	H	0.646612	0.362562	0.812057
266888351	C	0.671603	0.582112	0.682223
266888351	H	0.740563	0.500547	0.648665
266888351	C	0.686107	0.400363	0.710017
266888351	C	0.732485	0.575215	0.662442
266888351	C	0.643299	0.450724	0.67562
266888351	F	0.653644	0.502754	0.630074
266888351	H	0.728049	0.534408	0.834661
266888351	O	0.665557	0.571005	0.695798
266888351	H	0.673851	0.391004	0.714228
266888351	O	0.668353	0.540551	0.634116
266888351	H	0.60217	0.499162	0.644008
266888351	C	0.72982	0.459133	0.782976
266888351	O	0.686024	0.367445	0.828349
266888351	C	0.60433	0.407313	0.796566
266888351	H	0.670332	0.451258	0.615236
266888351	Fe	0.674133	0.509417	0.775646
266888351	C	0.62321	0.413292	0.805995
266888351	C	0.658909	0.48266	0.719439
266888351	O	0.633579	0.503014	0.666122
266888351	Fe	0.689107	0.460942	0.761689
266888351	O	0.631503	0.392218	0.612976
266888351	O	0.601807	0.427942	0.617646
266888351	C	0.737932	0.575575	0.806378
266888351	O	0.659405	0.535519	0.76962
266888351	O	0.658765	0.543126	0.726583
266888351	H	0.585171	0.349618	0.816834
266888351	C	0.656455	0.544989	0.601096
266888351	H	0.751169	0.399302	0.73471
266888351	H	0.702773	0.429018	0.672575
266888351	O	0.638862	0.435196	0.684876
266888351	H	0.634022	0.491478	0.657832
266888351	C	0.598039	0.527573	0.658757
266888351	C	0.670887	0.497137	0.709991
266888351	C	0.598492	0.495166	0.821603
266888351	C	0.614189	0.44051	0.611254
266888351	C	0.69994	0.405426	0.724708
266888351	C	0.672912	0.496998	0.689337
266888351	O	0.69895	0.574086	0.614115
266888351	C	0.659636	0.551231	0.62211
266888351	C	0.740312	0.473784	0.630064
266888351	O	0.644394	0.453118	0.656761
266888351	O	0.686044	0.52164	0.80074
266888351	C	0.63728	0.425624	0.797079
266888351	C	0.687277	0.40873	0.691163
266888351	C	0.63264	0.476919	0.837264
266888351	O	0.626049	0.583508	0.681746
266888351	C	0.655739	0.429941	0.80767
266888351	H	0.750914	0.471589	0.751477
266888351	Fe	0.728629	0.570199	0.618409
266888351	O	0.756919	0.567254	0.624214
266888351	C	0.619821	0.576845	0.697735
266888351	O	0.695957	0.366338	0.783542
266888351	O	0.660064	0.4064	0.621367
266888351	H	0.621519	0.522345	0.696709
266888351	O	0.725358	0.540666	0.611627
266888351	C	0.652897	0.492256	0.809515
266888351	O	0.663593	0.582892	0.665302
266888351	C	0.71501	0.540617	0.804811
266888351	O	0.670033	0.489607	0.817855
266888351	O	0.752246	0.365822	0.648376
266888351	O	0.670318	0.419616	0.662148
266888351	C	0.650208	0.391744	0.614781
266888351	C	0.732225	0.580319	0.769495
266888351	C	0.602248	0.348478	0.666558
266888351	H	0.673713	0.400234	0.783756
266888351	O	0.704052	0.479045	0.741138
266888351	O	0.610257	0.489758	0.758901
266888351	C	0.727048	0.506513	0.620454
266888351	C	0.626345	0.405692	0.824517
266888351	C	0.634246	0.488844	0.819978
266888351	H	0.705437	0.564081	0.68885
266888351	O	0.713948	0.383971	0.819738
266888351	C	0.605947	0.589006	0.708871
266888351	O	0.706723	0.477166	0.837856
266888351	C	0.658596	0.482338	0.74177
266888351	O	0.696617	0.376095	0.741572
266888351	O	0.742526	0.45137	0.704694
266888351	C	0.715217	0.55429	0.78923
266888351	O	0.681455	0.402657	0.795739
266888351	Fe	0.709681	0.391126	0.788735
266888351	C	0.671469	0.442382	0.799548
266888351	F	0.628115	0.403352	0.704977
266888351	C	0.616727	0.496997	0.81212
266888351	Fe	0.638275	0.571533	0.656157
266888351	C	0.429736	0.376171	0.779966
266888351	C	0.676638	0.585577	0.844275
266888351	H	0.436446	0.516382	0.716094
266888351	C	0.636242	0.545915	0.59628
266888351	H	0.756853	0.511729	0.838368
266888351	H	0.448906	0.472035	0.83907
266888351	H	0.646053	0.470034	0.84355
266888351	C	0.463034	0.562139	0.034081
266888351	O	0.583503	0.511642	0.863459
266888351	C	0.551194	0.554313	0.884641
266888351	O	0.508149	0.478186	0.906405
266888351	O	0.487551	0.452811	0.912307
266888351	C	0.494939	0.465724	0.900783
266888351	H	0.464645	0.427626	0.922457
266888351	F	0.545498	0.473931	0.913945
266888351	O	0.577176	0.46345	0.914498
266888351	Fe	0.445537	0.546556	0.877134
266888351	O	0.468204	0.552027	0.898533
266888351	O	0.45785	0.519595	0.872167
266888351	C	0.451861	0.503921	0.862257
266888351	H	0.471771	0.538359	0.902176
266888351	H	0.479846	0.556259	0.889189
266888351	C	0.514439	0.554148	0.93759
266888351	C	0.529995	0.572315	0.909907
266888351	C	0.523753	0.536533	0.931122
266888351	C	0.538717	0.55511	0.903532
266888351	C	0.536398	0.537189	0.914457
266888351	C	0.517974	0.571625	0.926735
266888351	H	0.545687	0.523492	0.910087
266888351	H	0.560254	0.430128	0.92351
266888351	C	0.479396	0.449294	0.870206
266888351	C	0.486823	0.466111	0.880853
266888351	C	0.465154	0.486708	0.861161
266888351	C	0.480702	0.485133	0.874422
266888351	H	0.485345	0.49896	0.881904
266888351	H	0.482897	0.434125	0.875759
266888351	C	0.483173	0.559346	0.0267619
266888351	O	0.495853	0.404068	0.0408832
266888351	O	0.480815	0.386335	0.0187232
266888351	C	0.480191	0.400749	0.029388
266888351	Fe	0.505288	0.380475	0.00133713
266888351	O	0.547776	0.37372	0.0569646
266888351	C	0.565135	0.370677	0.0490437
266888351	O	0.519818	0.409531	0.00410749
266888351	Fe	0.521943	0.387423	0.0467568
266888351	O	0.522833	0.372478	0.0232688
266888351	O	0.520612	0.40306	0.0741385
266888351	O	0.505706	0.364842	0.0584904
266888351	F	0.49014	0.389268	0.980776
266888351	C	0.496097	0.542748	0.034194
266888351	C	0.556997	0.417706	0.933398
266888351	C	0.533789	0.40172	0.954338
266888351	C	0.548899	0.389277	0.961537
266888351	C	0.537975	0.416771	0.942154
266888351	H	0.518053	0.400474	0.959177
266888351	O	0.515828	0.542438	0.0280274
266888351	O	0.489677	0.529238	0.0466894
266888351	O	0.537264	0.409289	0.0330011
266888351	C	0.534412	0.416413	0.014902
266888351	O	0.570489	0.514464	0.0467175
266888351	O	0.570306	0.501248	0.0766173
266888351	C	0.563622	0.512992	0.0643314
266888351	O	0.504005	0.431614	0.946908
266888351	O	0.525549	0.444612	0.925664
266888351	C	0.521464	0.431666	0.938312
266888351	Fe	0.524348	0.473621	0.93096
266888351	O	0.527055	0.502832	0.933545
266888351	C	0.517707	0.517596	0.940743
266888351	O	0.502021	0.515054	0.950994
266888351	O	0.458465	0.475466	0.939231
266888351	O	0.466941	0.497474	0.963691
266888351	C	0.45441	0.490336	0.951026
266888351	Fe	0.481238	0.453132	0.942042
266888351	O	0.500155	0.473346	0.947697
266888351	Fe	0.497028	0.492618	0.969847
266888351	O	0.541623	0.468964	0.955614
266888351	O	0.493769	0.513234	0.992738
266888351	O	0.526946	0.488178	0.978859
266888351	C	0.539889	0.474962	0.973413
266888351	O	0.489482	0.470982	0.989668
266888351	O	0.461445	0.429993	0.936419
266888351	O	0.472328	0.450463	0.970039
266888351	C	0.47663	0.456624	0.987092
266888351	H	0.467458	0.417928	0.943051
266888351	H	0.492717	0.50533	0.00497799
266888351	H	0.504458	0.523256	0.995101
266888351	H	0.503863	0.553691	0.949035
266888351	C	0.445448	0.447341	0.00235809
266888351	C	0.476246	0.433523	0.0149912
266888351	C	0.466289	0.417605	0.0234527
266888351	C	0.444703	0.416844	0.0204713
266888351	C	0.46588	0.446989	0.0033413
266888351	H	0.491465	0.435617	0.0176048
266888351	C	0.491731	0.573506	0.0136103
266888351	H	0.456258	0.551029	0.0429991
266888351	H	0.506639	0.570703	0.00829277
266888351	C	0.548329	0.525857	0.0719152
266888351	C	0.55477	0.545732	0.0763474
266888351	H	0.562982	0.553171	0.0658504
266888351	C	0.563308	0.440788	0.0221663
266888351	C	0.541768	0.444602	0.993473
266888351	C	0.549883	0.463599	0.989728
266888351	C	0.566014	0.470018	0.00128196
266888351	C	0.548264	0.433061	0.0093853
266888351	H	0.527647	0.442085	0.98594
266888351	H	0.522546	0.530591	0.0339761
266888351	C	0.451997	0.578871	0.0269311
266888351	C	0.460783	0.459098	0.0653042
266888351	C	0.455213	0.439337	0.0682575
266888351	H	0.477635	0.483581	0.0761265
266888351	C	0.475058	0.467488	0.0768097
266888351	H	0.438483	0.459072	0.993803
266888351	O	0.567137	0.360248	0.872679
266888351	H	0.531416	0.585866	0.901494
266888351	H	0.437456	0.404419	0.0276615
266888351	O	0.464968	0.555803	0.856126
266888351	C	0.508978	0.588316	0.933662
266888351	C	0.433681	0.432079	0.0102701
266888351	H	0.569015	0.390311	0.0819879
266888351	O	0.560627	0.568631	0.877764
266888351	O	0.53752	0.584003	0.0754797
266888351	Fe	0.588218	0.562992	0.865125
266888351	C	0.54184	0.376444	0.978584
266888351	H	0.581265	0.476418	0.909276
266888351	C	0.4671	0.451716	0.852368
266888351	H	0.568456	0.432453	0.0353516
266888351	C	0.568468	0.390712	0.953648
266888351	O	0.552907	0.53703	0.877531
266888351	O	0.565745	0.367009	0.0304714
266888351	C	0.572269	0.459143	0.0184532
266888351	H	0.572086	0.484518	0.999009
266888351	O	0.523349	0.371877	0.979851
266888351	H	0.578407	0.464745	0.929036
266888351	H	0.577704	0.570207	0.0446608
266888351	C	0.572365	0.404598	0.938584
266888351	O	0.554296	0.370215	0.991396
266888351	F	0.487582	0.36139	0.91212
266888351	H	0.528247	0.394569	0.0833807
266888351	H	0.494809	0.361933	0.0492111
266888351	H	0.568115	0.436103	0.886905
266888351	H	0.529269	0.415214	0.0735345
266888351	C	0.583941	0.371975	0.0608997
266888351	O	0.57808	0.426498	0.89194
266888351	C	0.583112	0.38441	0.0778329
266888351	C	0.450722	0.472826	0.0491031
266888351	O	0.443277	0.425887	0.851409
266888351	O	0.583725	0.468281	0.0517672
266888351	H	0.578955	0.37953	0.958209
266888351	C	0.586491	0.469634	0.0331623
266888351	C	0.435102	0.502177	0.948907
266888351	C	0.50867	0.353648	0.853151
266888351	F	0.544419	0.505243	0.85857
266888351	O	0.438074	0.403611	0.0810426
266888351	O	0.457141	0.490347	0.0450444
266888351	H	0.451786	0.586949	0.925382
266888351	H	0.444451	0.433343	0.0585681
266888351	O	0.490452	0.590019	0.929931
266888351	H	0.571143	0.364899	0.859618
266888351	Fe	0.543841	0.352245	0.0161115
266888351	C	0.534415	0.517114	0.084264
266888351	H	0.529489	0.502074	0.0833704
266888351	H	0.498616	0.372287	0.0695173
266888351	O	0.493078	0.352313	0.00268592
266888351	Fe	0.560384	0.525471	0.850418
266888351	C	0.455447	0.406918	0.0872182
266888351	C	0.464552	0.427575	0.083129
266888351	O	0.434237	0.501459	0.856815
266888351	C	0.589747	0.581018	0.0434861
266888351	H	0.584571	0.391839	0.887961
266888351	H	0.582613	0.479968	0.846388
266888351	Fe	0.592996	0.482599	0.0781617
266888351	H	0.434588	0.494198	0.917709
266888351	C	0.430171	0.57875	0.023914
266888351	H	0.546526	0.350366	0.901627
266888351	C	0.459895	0.470528	0.849823
266888351	F	0.593928	0.519654	0.0119004
266888351	C	0.481706	0.590461	0.0085997
266888351	C	0.461618	0.593766	0.015489
266888351	C	0.593076	0.40975	0.930336
266888351	O	0.594284	0.398756	0.879794
266888351	O	0.437678	0.358459	0.0903654
266888351	C	0.75998	0.501484	0.92129
266888351	H	0.431601	0.515855	0.977914
266888351	O	0.589921	0.537502	0.881463
266888351	H	0.591473	0.5722	0.898653
266888351	O	0.657313	0.584365	0.844622
266888351	O	0.732913	0.591901	0.924046
266888351	O	0.589079	0.589022	0.850419
266888351	C	0.489374	0.356968	0.84613
266888351	H	0.736516	0.360565	0.951249
266888351	H	0.597458	0.591844	0.885638
266888351	O	0.758543	0.477803	0.0098122
266888351	O	0.42878	0.538768	0.900353
266888351	H	0.756474	0.552576	0.905012
266888351	C	0.76088	0.460993	0.0186165
266888351	H	0.428938	0.475474	0.030332
266888351	H	0.664326	0.535505	0.0770888
266888351	C	0.428175	0.503219	0.929081
266888351	H	0.694161	0.480653	0.845528
266888351	C	0.666762	0.403387	0.895976
266888351	O	0.623702	0.428003	0.896594
266888351	O	0.434945	0.465633	0.0392778
266888351	O	0.650353	0.347869	0.944823
266888351	O	0.431978	0.574273	0.884541
266888351	O	0.720761	0.482369	0.0137541
266888351	O	0.597329	0.483311	0.0266891
266888351	H	0.751666	0.556064	0.926709
266888351	O	0.677905	0.358974	0.961442
266888351	H	0.717526	0.585025	0.84636
266888351	O	0.642018	0.548149	0.913633
266888351	H	0.743865	0.374231	0.933222
266888351	O	0.722963	0.42636	0.990949
266888351	C	0.613886	0.475434	0.84816
266888351	O	0.692091	0.58804	0.0938601
266888351	C	0.659448	0.46645	0.952159
266888351	C	0.69664	0.395624	0.00370225
266888351	O	0.728138	0.590538	0.0443758
266888351	C	0.523935	0.365703	0.844955
266888351	H	0.716388	0.431411	0.922855
266888351	H	0.719436	0.561483	0.905665
266888351	O	0.701776	0.473621	0.95681
266888351	O	0.653445	0.36609	0.058452
266888351	H	0.671199	0.51385	0.890551
266888351	C	0.595062	0.521031	0.874767
266888351	H	0.734058	0.588384	0.0572975
266888351	H	0.671245	0.41714	0.96561
266888351	O	0.721557	0.34767	0.0495525
266888351	C	0.701749	0.531673	0.00737011
266888351	Fe	0.751008	0.488404	0.981824
266888351	O	0.603941	0.396745	0.921909
266888351	Fe	0.62204	0.399135	0.895017
266888351	C	0.598015	0.384096	0.0907274
266888351	C	0.749235	0.492116	0.93829
266888351	O	0.601294	0.577556	0.888508
266888351	H	0.621453	0.570637	0.851791
266888351	F	0.635481	0.58918	0.905294
266888351	H	0.464392	0.519522	0.0852243
266888351	H	0.596539	0.390079	0.868834
266888351	C	0.678854	0.556108	0.991945
266888351	Fe	0.600358	0.512066	0.0374996
266888351	C	0.607754	0.582463	0.947817
266888351	C	0.701068	0.511504	0.0131203
266888351	H	0.71067	0.395823	0.0116415
266888351	O	0.692895	0.37302	0.0419566
266888351	C	0.734279	0.588921	0.880899
266888351	O	0.622637	0.388908	0.989255
266888351	H	0.667118	0.453544	0.94685
266888351	O	0.600267	0.54197	0.0438047
266888351	H	0.539088	0.362439	0.850005
266888351	H	0.669255	0.497684	0.988785
266888351	C	0.642311	0.516069	0.90192
266888351	H	0.644228	0.357741	0.954106
266888351	O	0.694852	0.520123	0.953285
266888351	O	0.713059	0.445662	0.924369
266888351	C	0.689731	0.470468	0.971777
266888351	H	0.650666	0.372994	0.0064792
266888351	O	0.694591	0.462248	0.98763
266888351	O	0.698663	0.565304	0.0683829
266888351	C	0.637145	0.397584	0.979408
266888351	C	0.674353	0.407357	0.978086
266888351	C	0.636379	0.464137	0.924629
266888351	H	0.726149	0.542103	0.0769226
266888351	C	0.60252	0.364175	0.0545305
266888351	H	0.682277	0.490207	0.029608
266888351	O	0.607413	0.504648	0.0645962
266888351	C	0.685081	0.544207	0.0097781
266888351	C	0.616016	0.515185	0.878073
266888351	C	0.662769	0.382644	0.001889
266888351	C	0.638634	0.355386	0.0640416
266888351	C	0.688758	0.578218	0.860889
266888351	H	0.737795	0.583321	0.034951
266888351	O	0.706313	0.442289	0.0262681
266888351	H	0.606981	0.363078	0.896799
266888351	C	0.622274	0.514039	0.89772
266888351	H	0.734213	0.503631	0.90233
266888351	O	0.687848	0.35035	0.0193817
266888351	O	0.632254	0.409143	0.964206
266888351	H	0.725514	0.36309	0.859116
266888351	H	0.621333	0.583501	0.00479201
266888351	C	0.642007	0.499791	0.970696
266888351	C	0.616452	0.375305	0.0859971
266888351	C	0.633556	0.491268	0.953082
266888351	C	0.682298	0.565171	0.914679
266888351	C	0.724792	0.544306	0.0925433
266888351	H	0.691611	0.37485	0.911742
266888351	O	0.747967	0.50115	0.95432
266888351	O	0.756326	0.553379	0.851507
266888351	C	0.618874	0.36553	0.0675939
266888351	O	0.742096	0.474342	0.935772
266888351	C	0.656203	0.514473	0.886779
266888351	C	0.646803	0.529805	0.917515
266888351	O	0.752012	0.584462	0.884027
266888351	O	0.61669	0.556702	0.855053
266888351	H	0.657948	0.546991	0.0280727
266888351	H	0.629384	0.363083	0.905299
266888351	C	0.695387	0.378447	0.896916
266888351	C	0.642001	0.473534	0.944197
266888351	H	0.602913	0.356833	0.0404407
266888351	C	0.665843	0.522071	0.852462
266888351	C	0.708336	0.421396	0.979748
266888351	O	0.748128	0.432798	0.948194
266888351	C	0.649946	0.516565	0.867347
266888351	Fe	0.642383	0.574861	0.928054
266888351	O	0.627686	0.546121	0.0611265
266888351	F	0.681321	0.38524	0.0814169
266888351	O	0.618515	0.466171	0.0824622
266888351	H	0.663285	0.570493	0.879505
266888351	C	0.679245	0.571501	0.878368
266888351	O	0.609767	0.575653	0.965314
266888351	H	0.689759	0.573887	0.0615129
266888351	O	0.634989	0.40081	0.866942
266888351	O	0.670156	0.579411	0.91896
266888351	O	0.748844	0.364013	0.942934
266888351	O	0.658925	0.528432	0.97544
266888351	H	0.676352	0.400788	0.856434
266888351	C	0.641537	0.521174	0.974415
266888351	Fe	0.724282	0.454238	0.951898
266888351	O	0.621603	0.568673	0.00267925
266888351	C	0.693137	0.40689	0.986614
266888351	O	0.617992	0.464582	0.91971
266888351	C	0.701329	0.571985	0.0874873
266888351	C	0.711548	0.565626	0.892477
266888351	O	0.660745	0.558751	0.992062
266888351	Fe	0.681773	0.360104	0.0685445
266888351	O	0.650669	0.56033	0.951723
266888351	C	0.701395	0.383038	0.854474
266888351	O	0.652071	0.395893	0.905315
266888351	Fe	0.672389	0.541012	0.952036
266888351	C	0.625337	0.586805	0.0457484
266888351	C	0.750864	0.505115	0.903042
266888351	C	0.723842	0.352075	0.895498
266888351	Fe	0.64732	0.443319	0.888248
266888351	C	0.667183	0.517103	0.0270623
266888351	O	0.748843	0.447276	0.0136696
266888351	H	0.706919	0.526606	0.957793
266888351	C	0.658239	0.395246	0.986171
266888351	C	0.647976	0.51104	0.037136
266888351	H	0.617648	0.4072	0.961899
266888351	C	0.753001	0.509165	0.866469
266888351	O	0.706343	0.431091	0.963749
266888351	H	0.691128	0.512724	0.96561
266888351	O	0.734123	0.508603	0.864356
266888351	O	0.667803	0.422294	0.893706
266888351	O	0.688426	0.555698	0.97511
266888351	H	0.692808	0.440844	0.0210379
266888351	O	0.68735	0.551899	0.927377
266888351	Fe	0.630877	0.517926	0.0767735
266888351	C	0.683632	0.504519	0.0242135
266888351	C	0.659473	0.490491	0.978276
266888351	C	0.608472	0.573751	0.0476412
266888351	H	0.624943	0.519009	0.846911
266888351	C	0.68743	0.368139	0.0252002
266888351	H	0.621313	0.497974	0.94469
266888351	H	0.611517	0.51614	0.909116
266888351	C	0.612521	0.552897	0.0513096
266888351	O	0.598662	0.428007	0.930311
266888351	H	0.607568	0.564337	0.999645
266888351	O	0.621325	0.367795	0.893058
266888351	H	0.624839	0.555663	0.867086
266888351	Fe	0.721599	0.454724	0.00108106
266888351	Fe	0.636043	0.564785	0.976279
266888351	O	0.727301	0.504188	0.99032
266888351	C	0.714133	0.371707	0.865965
266888351	O	0.600426	0.460171	0.878569
266888351	H	0.640352	0.580693	0.0452673
266888351	C	0.6689	0.47499	0.96823
266888351	O	0.685612	0.520614	0.856715
266888351	O	0.656673	0.524812	0.933082
266888351	O	0.614329	0.571966	0.93341
266888351	C	0.614654	0.46835	0.869579
266888351	O	0.631243	0.466957	0.877854
266888351	H	0.71111	0.428501	0.0280888
266888351	O	0.649231	0.453893	0.915668
266888351	O	0.644322	0.432223	0.861432
266888351	C	0.711001	0.368163	0.886612
266888351	C	0.669557	0.537411	0.0219755
266888351	O	0.626489	0.53357	0.974045
266888351	H	0.698416	0.446501	0.923932
266888351	C	0.709471	0.578458	0.859187
266888351	C	0.682106	0.382926	0.0105345
266888351	C	0.725145	0.34955	0.0681034
266888351	C	0.640267	0.414927	0.855502
266888351	C	0.686998	0.393763	0.865369
266888351	C	0.629688	0.517111	0.862377
266888351	H	0.713961	0.537223	0.997495
266888351	F	0.668292	0.458743	0.879965
266888351	C	0.716759	0.498463	0.00484335
266888351	O	0.735282	0.463594	0.976822
266888351	C	0.683097	0.391089	0.885866
266888351	O	0.710602	0.354475	0.0796472
266888351	O	0.630947	0.513023	0.0277408
266888351	O	0.648313	0.506108	0.0552469
266888351	C	0.721061	0.573834	0.875335
266888351	Fe	0.600101	0.444293	0.904819
266888351	C	0.690847	0.56631	0.895011
266888351	O	0.723638	0.345662	0.91296
266888351	H	0.740971	0.420136	0.951174
266888351	O	0.657192	0.53079	0.0888346
266888351	H	0.46878	0.593067	0.894319
266888351	C	0.544846	0.57796	0.091158
266888351	O	0.513396	0.592899	0.0442675
266888351	C	0.546099	0.556453	0.092332
266888351	H	0.477769	0.349053	0.853774
266888351	C	0.669297	0.344769	0.951934
266888351	O	0.646693	0.593799	0.976821
266888351	O	0.73776	0.345877	0.884357
266888351	O	0.636417	0.491765	0.0941332
266888351	O	0.575827	0.460784	0.0922023
266888351	C	0.63176	0.473406	0.0942961
266888351	H	0.692299	0.528309	0.846112
266888351	O	0.477449	0.754768	0.257498
266888351	C	0.486438	0.752897	0.240571
266888351	O	0.526015	0.641723	0.123364
266888351	C	0.542592	0.642396	0.129706
266888351	C	0.485861	0.758691	0.122506
266888351	O	0.499885	0.75367	0.134076
266888351	O	0.530234	0.744728	0.164194
266888351	H	0.520115	0.739691	0.174437
266888351	H	0.541413	0.749213	0.172691
266888351	O	0.493444	0.662104	0.255306
266888351	O	0.500167	0.631555	0.246363
266888351	C	0.493188	0.643788	0.259098
266888351	Fe	0.490467	0.627115	0.21829
266888351	O	0.482227	0.618595	0.188514
266888351	C	0.477714	0.627051	0.17122
266888351	O	0.47677	0.645845	0.169599
266888351	O	0.458143	0.687076	0.212491
266888351	O	0.475847	0.691056	0.185324
266888351	C	0.464754	0.698476	0.198418
266888351	O	0.461781	0.624254	0.227362
266888351	Fe	0.477236	0.673193	0.233124
266888351	O	0.486864	0.655338	0.212215
266888351	Fe	0.495448	0.665655	0.185476
266888351	O	0.519743	0.628072	0.210955
266888351	O	0.505966	0.676238	0.158439
266888351	O	0.517812	0.644425	0.183042
266888351	C	0.528443	0.637067	0.197123
266888351	O	0.515922	0.685413	0.199427
266888351	O	0.499542	0.695707	0.228413
266888351	H	0.509334	0.688966	0.236918
266888351	H	0.500695	0.689945	0.1555
266888351	H	0.500653	0.667231	0.148412
266888351	C	0.572652	0.663225	0.131095
266888351	C	0.552018	0.662102	0.132045
266888351	H	0.581667	0.650066	0.132677
266888351	H	0.526222	0.679076	0.132046
266888351	C	0.480578	0.621748	0.134548
266888351	C	0.476736	0.613764	0.153594
266888351	H	0.482861	0.6372	0.133011
266888351	C	0.442687	0.755382	0.123718
266888351	C	0.457885	0.741461	0.125554
266888351	H	0.461005	0.736243	0.140597
266888351	C	0.559285	0.656236	0.185619
266888351	C	0.559029	0.641619	0.218649
266888351	C	0.576578	0.666438	0.190812
266888351	C	0.576088	0.652592	0.223458
266888351	C	0.584615	0.665418	0.209596
266888351	C	0.550077	0.643623	0.199858
266888351	H	0.553485	0.6317	0.229815
266888351	H	0.553613	0.658551	0.170282
266888351	C	0.465599	0.734565	0.184162
266888351	C	0.465948	0.728352	0.219778
266888351	C	0.467709	0.755716	0.187716
266888351	C	0.473158	0.747867	0.222719
266888351	C	0.462845	0.721418	0.200401
266888351	H	0.465058	0.719108	0.232133
266888351	H	0.467372	0.729108	0.16939
266888351	H	0.523476	0.691777	0.188234
266888351	H	0.493854	0.705808	0.237444
266888351	C	0.585116	0.65176	0.244103
266888351	O	0.541463	0.74187	0.254082
266888351	O	0.514437	0.795276	0.255204
266888351	O	0.482645	0.788022	0.255206
266888351	C	0.497522	0.794666	0.245985
266888351	Fe	0.528869	0.769806	0.257817
266888351	O	0.5458	0.779903	0.235106
266888351	O	0.504833	0.757753	0.237891
266888351	H	0.558613	0.780616	0.241023
266888351	H	0.547454	0.769313	0.224849
266888351	O	0.443254	0.814792	0.171959
266888351	O	0.480955	0.828704	0.1553
266888351	Fe	0.479852	0.801164	0.138929
266888351	Fe	0.525431	0.816842	0.133815
266888351	O	0.507041	0.795449	0.142216
266888351	Fe	0.517801	0.77082	0.152659
266888351	O	0.469869	0.782533	0.162255
266888351	O	0.49703	0.767931	0.173946
266888351	C	0.478431	0.768503	0.173048
266888351	O	0.534146	0.788497	0.172718
266888351	O	0.529421	0.820514	0.164256
266888351	C	0.529076	0.807007	0.177371
266888351	F	0.454167	0.807529	0.133287
266888351	C	0.470197	0.761684	0.207896
266888351	H	0.472794	0.776997	0.210089
266888351	C	0.513287	0.796841	0.210747
266888351	C	0.483782	0.814124	0.220746
266888351	C	0.517074	0.811205	0.19597
266888351	C	0.489832	0.829998	0.209437
266888351	C	0.506153	0.828353	0.196732
266888351	C	0.497529	0.799677	0.225206
266888351	H	0.470958	0.816555	0.230726
266888351	H	0.521478	0.784026	0.21144
266888351	O	0.558626	0.756923	0.2771
266888351	C	0.55776	0.743598	0.263131
266888351	O	0.485935	0.754416	0.309595
266888351	O	0.529036	0.731907	0.300954
266888351	O	0.475892	0.742831	0.274727
266888351	H	0.485534	0.733067	0.281731
266888351	H	0.456978	0.793354	0.293309
266888351	F	0.556731	0.761301	0.316781
266888351	O	0.45174	0.673058	0.322153
266888351	C	0.447347	0.655641	0.316071
266888351	O	0.564341	0.727662	0.303787
266888351	O	0.550754	0.690598	0.321704
266888351	H	0.558115	0.718577	0.294038
266888351	C	0.535804	0.64315	0.30696
266888351	C	0.521752	0.627006	0.306584
266888351	C	0.504452	0.628586	0.317835
266888351	C	0.533818	0.657809	0.321128
266888351	H	0.550595	0.641056	0.299864
266888351	H	0.493268	0.616846	0.318595
266888351	C	0.474604	0.650137	0.289934
266888351	C	0.454081	0.621924	0.30224
266888351	C	0.482197	0.636317	0.275728
266888351	C	0.459247	0.642626	0.302683
266888351	H	0.442596	0.615072	0.310924
266888351	H	0.477794	0.665449	0.28825
266888351	H	0.524783	0.728658	0.287129
266888351	H	0.464378	0.740084	0.282923
266888351	Fe	0.535146	0.762072	0.299089
266888351	O	0.513471	0.769084	0.318332
266888351	C	0.500354	0.756459	0.321234
266888351	O	0.538097	0.791799	0.300157
266888351	O	0.513958	0.762628	0.279162
266888351	Fe	0.485871	0.772156	0.283215
266888351	O	0.455858	0.779546	0.289277
266888351	O	0.523639	0.799593	0.272062
266888351	C	0.525384	0.802617	0.290508
266888351	H	0.453986	0.772477	0.302133
266888351	C	0.510969	0.819413	0.322271
266888351	C	0.50284	0.831718	0.289185
266888351	C	0.499669	0.834541	0.331869
266888351	C	0.512204	0.818021	0.300659
266888351	H	0.50392	0.830517	0.273825
266888351	C	0.54161	0.679896	0.131408
266888351	C	0.570003	0.697298	0.119443
266888351	C	0.524576	0.606986	0.298253
266888351	C	0.581254	0.679749	0.122581
266888351	C	0.550036	0.697241	0.123465
266888351	C	0.536996	0.715039	0.117581
266888351	H	0.518986	0.808722	0.330732
266888351	C	0.589041	0.675381	0.175633
266888351	O	0.537646	0.603188	0.28505
266888351	O	0.557611	0.824274	0.314714
266888351	O	0.519592	0.717769	0.124344
266888351	O	0.574832	0.642774	0.259256
266888351	H	0.579612	0.647631	0.27194
266888351	O	0.55327	0.626066	0.128136
266888351	C	0.550343	0.671258	0.326329
266888351	O	0.478888	0.7759	0.121517
266888351	C	0.473592	0.744048	0.112866
266888351	C	0.478773	0.616123	0.276882
266888351	O	0.434524	0.646404	0.326018
266888351	O	0.549154	0.799144	0.132705
266888351	O	0.538176	0.768291	0.131316
266888351	C	0.438901	0.762213	0.10459
266888351	H	0.571471	0.703402	0.26971
266888351	C	0.550621	0.781031	0.127149
266888351	C	0.577577	0.758145	0.126266
266888351	H	0.581505	0.834524	0.216979
266888351	Fe	0.577172	0.710305	0.323551
266888351	C	0.576929	0.732235	0.257501
266888351	O	0.464458	0.690928	0.255402
266888351	C	0.451507	0.635553	0.238424
266888351	H	0.575421	0.733803	0.296914
266888351	C	0.483925	0.608811	0.117955
266888351	H	0.457951	0.68151	0.264971
266888351	C	0.503158	0.642862	0.33244
266888351	O	0.484096	0.815977	0.112346
266888351	H	0.474899	0.698436	0.261791
266888351	C	0.516491	0.658669	0.332957
266888351	O	0.455359	0.653887	0.240389
266888351	O	0.516674	0.810954	0.105832
266888351	C	0.570031	0.775743	0.119094
266888351	C	0.464715	0.608455	0.290423
266888351	H	0.567542	0.745333	0.130956
266888351	C	0.58809	0.621216	0.332885
266888351	F	0.585066	0.607609	0.111869
266888351	C	0.58318	0.791799	0.115508
266888351	H	0.485629	0.605517	0.267138
266888351	C	0.580151	0.796427	0.327394
266888351	C	0.434488	0.765399	0.141776
266888351	C	0.582808	0.71449	0.266933
266888351	C	0.588815	0.603096	0.321337
266888351	H	0.576898	0.805856	0.110745
266888351	O	0.506301	0.676444	0.105004
266888351	C	0.574035	0.81301	0.312793
266888351	O	0.504055	0.837918	0.134149
266888351	H	0.44648	0.813805	0.18592
266888351	H	0.576675	0.710848	0.113327
266888351	H	0.440592	0.599713	0.256755
266888351	F	0.432811	0.708491	0.338378
266888351	O	0.543898	0.727905	0.104075
266888351	O	0.563735	0.663718	0.336906
266888351	Fe	0.562125	0.617001	0.0998116
266888351	H	0.585475	0.75555	0.239776
266888351	O	0.587955	0.694676	0.301533
266888351	C	0.591435	0.743613	0.248775
266888351	C	0.498314	0.814289	0.100078
266888351	H	0.558652	0.833891	0.303719
266888351	H	0.438251	0.828454	0.170923
266888351	O	0.58566	0.816637	0.298216
266888351	H	0.574799	0.628601	0.337786
266888351	C	0.49343	0.616411	0.0985239
266888351	O	0.433	0.755853	0.157494
266888351	C	0.504353	0.743568	0.338293
266888351	H	0.555337	0.600598	0.24667
266888351	F	0.493882	0.599742	0.223112
266888351	H	0.511162	0.841709	0.189002
266888351	O	0.543327	0.840252	0.126072
266888351	H	0.532194	0.73698	0.100062
266888351	H	0.496664	0.671684	0.114794
266888351	Fe	0.521228	0.651582	0.0948642
266888351	H	0.761058	0.742981	0.180151
266888351	O	0.596553	0.664479	0.162615
266888351	O	0.590333	0.694657	0.341549
266888351	C	0.567431	0.790233	0.343091
266888351	H	0.601258	0.834968	0.336966
266888351	H	0.574942	0.60376	0.258317
266888351	C	0.666367	0.749881	0.150715
266888351	O	0.761212	0.629644	0.159324
266888351	O	0.495122	0.635271	0.096174
266888351	O	0.594299	0.693639	0.178408
266888351	O	0.60024	0.662735	0.248884
266888351	O	0.576258	0.643431	0.0950158
266888351	O	0.428712	0.778994	0.19283
266888351	F	0.631394	0.599437	0.247612
266888351	O	0.746304	0.789261	0.135077
266888351	H	0.435311	0.833058	0.0965687
266888351	C	0.431077	0.611575	0.261499
266888351	O	0.659385	0.802902	0.115866
266888351	C	0.43337	0.629279	0.250715
266888351	C	0.607656	0.596812	0.315448
266888351	O	0.760999	0.828099	0.180831
266888351	C	0.49208	0.842471	0.14793
266888351	O	0.639434	0.730549	0.158731
266888351	H	0.590495	0.640622	0.0951636
266888351	H	0.65855	0.84123	0.282656
266888351	H	0.597347	0.67449	0.212777
266888351	C	0.594761	0.841366	0.245377
266888351	H	0.536119	0.747128	0.336064
266888351	O	0.622496	0.723013	0.343974
266888351	H	0.743225	0.786454	0.121174
266888351	H	0.474471	0.734734	0.341132
266888351	O	0.704944	0.631591	0.288634
266888351	O	0.760653	0.647086	0.201686
266888351	Fe	0.61772	0.711676	0.167699
266888351	H	0.551972	0.794546	0.343101
266888351	C	0.731904	0.660181	0.343186
266888351	O	0.741149	0.659471	0.13114
266888351	C	0.689001	0.670051	0.20603
266888351	Fe	0.624141	0.664513	0.150887
266888351	O	0.641054	0.844585	0.231996
266888351	H	0.663028	0.76265	0.121704
266888351	C	0.658145	0.777006	0.196665
266888351	O	0.616188	0.835272	0.337738
266888351	O	0.625358	0.69325	0.14664
266888351	C	0.671768	0.785338	0.144048
266888351	Fe	0.633918	0.704486	0.120642
266888351	C	0.611196	0.741866	0.253905
266888351	O	0.615242	0.66466	0.333625
266888351	H	0.718552	0.615598	0.191604
266888351	C	0.707998	0.670266	0.195322
266888351	H	0.656296	0.730534	0.338695
266888351	H	0.721224	0.742064	0.326954
266888351	F	0.732967	0.71294	0.206084
266888351	C	0.599878	0.789219	0.327805
266888351	Fe	0.759444	0.816355	0.137236
266888351	O	0.623364	0.634238	0.154992
266888351	C	0.668285	0.803564	0.132188
266888351	C	0.605693	0.736833	0.134748
266888351	H	0.721666	0.604351	0.335996
266888351	O	0.620019	0.731325	0.125027
266888351	H	0.718817	0.666944	0.315844
266888351	C	0.693027	0.74038	0.327172
266888351	F	0.64555	0.691259	0.338534
266888351	O	0.644477	0.799049	0.237131
266888351	O	0.429209	0.609435	0.340972
266888351	C	0.759795	0.661484	0.21412
266888351	O	0.687627	0.627912	0.247794
266888351	H	0.613334	0.631774	0.164718
266888351	O	0.737749	0.714871	0.168929
266888351	C	0.62444	0.62375	0.332741
266888351	O	0.638357	0.607848	0.287907
266888351	Fe	0.653891	0.599638	0.263497
266888351	C	0.725731	0.648728	0.136835
266888351	O	0.646678	0.800938	0.279924
266888351	O	0.713876	0.685862	0.1868
266888351	O	0.678188	0.59811	0.278217
266888351	O	0.74968	0.671204	0.171179
266888351	C	0.673529	0.749755	0.322042
266888351	O	0.60169	0.807045	0.237104
266888351	H	0.668685	0.741721	0.181242
266888351	C	0.688031	0.656711	0.222124
266888351	Fe	0.64463	0.837196	0.1452
266888351	C	0.654931	0.770956	0.298873
266888351	H	0.686843	0.770511	0.302289
266888351	C	0.638616	0.679409	0.191068
266888351	C	0.604368	0.700648	0.294917
266888351	C	0.601851	0.67893	0.115984
266888351	O	0.694613	0.722948	0.334565
266888351	C	0.705852	0.625398	0.306976
266888351	H	0.638811	0.631797	0.336632
266888351	Fe	0.703091	0.610244	0.265848
266888351	O	0.626185	0.813359	0.136143
266888351	C	0.653514	0.731858	0.146423
266888351	O	0.709814	0.751266	0.324155
266888351	C	0.728777	0.833278	0.195884
266888351	H	0.729801	0.610893	0.171509
266888351	H	0.67597	0.803195	0.171584
266888351	C	0.652534	0.658973	0.220703
266888351	O	0.656642	0.628813	0.255887
266888351	O	0.72861	0.622918	0.250927
266888351	Fe	0.622498	0.796978	0.218329
266888351	O	0.619499	0.702026	0.307578
266888351	H	0.638419	0.813573	0.173037
266888351	H	0.710982	0.806173	0.198693
266888351	C	0.677296	0.657565	0.115228
266888351	C	0.670943	0.63525	0.244874
266888351	H	0.620967	0.825958	0.326835
266888351	H	0.733838	0.613671	0.24046
266888351	O	0.657722	0.718001	0.133777
266888351	H	0.690439	0.65573	0.144527
266888351	O	0.643237	0.758483	0.250102
266888351	C	0.606401	0.631396	0.339
266888351	F	0.611527	0.731563	0.186958
266888351	Fe	0.648038	0.827003	0.0979981
266888351	C	0.618934	0.734414	0.329053
266888351	H	0.654898	0.827746	0.180183
266888351	C	0.722744	0.654878	0.326393
266888351	H	0.679167	0.743265	0.23659
266888351	C	0.657893	0.666561	0.122519
266888351	O	0.732087	0.616	0.185422
266888351	O	0.624239	0.828125	0.208878
266888351	C	0.669457	0.753937	0.170384
266888351	O	0.657029	0.598215	0.313847
266888351	C	0.671954	0.78837	0.164637
266888351	C	0.637029	0.762147	0.306096
266888351	C	0.742445	0.826446	0.178379
266888351	H	0.754222	0.672135	0.255497
266888351	C	0.714178	0.64059	0.10291
266888351	C	0.617115	0.726232	0.267767
266888351	H	0.627561	0.769084	0.128262
266888351	H	0.675666	0.689527	0.185959
266888351	C	0.603132	0.790561	0.119833
266888351	C	0.672459	0.764579	0.307727
266888351	O	0.618536	0.768199	0.229116
266888351	C	0.667367	0.765789	0.136746
266888351	O	0.618989	0.818186	0.103684
266888351	H	0.637969	0.653533	0.225329
266888351	O	0.745876	0.699624	0.142561
266888351	O	0.597374	0.726139	0.148092
266888351	C	0.717071	0.634177	0.323378
266888351	C	0.65647	0.784963	0.280949
266888351	C	0.709517	0.64541	0.122868
266888351	C	0.673194	0.68011	0.199013
266888351	C	0.598017	0.755948	0.130176
266888351	H	0.631736	0.723991	0.273837
266888351	O	0.676388	0.825047	0.246476
266888351	O	0.633463	0.665563	0.17908
266888351	H	0.610752	0.794557	0.317913
266888351	H	0.701352	0.651164	0.227406
266888351	O	0.643833	0.78947	0.197366
266888351	H	0.696173	0.760101	0.234896
266888351	O	0.66977	0.820886	0.140929
266888351	C	0.654028	0.674068	0.205455
266888351	C	0.687298	0.815647	0.233797
266888351	O	0.738103	0.820977	0.161117
266888351	Fe	0.618607	0.693826	0.339481
266888351	C	0.641035	0.605033	0.306156
266888351	C	0.625268	0.756978	0.243587
266888351	C	0.747771	0.714793	0.153816
266888351	O	0.737485	0.826721	0.118429
266888351	C	0.624376	0.608013	0.319875
266888351	C	0.738884	0.838709	0.104343
266888351	O	0.670415	0.782129	0.269048
266888351	Fe	0.664698	0.777108	0.240368
266888351	Fe	0.741859	0.693402	0.18933
266888351	O	0.685438	0.755102	0.243465
266888351	O	0.652226	0.662354	0.140415
266888351	C	0.611338	0.771847	0.12629
266888351	O	0.663258	0.767543	0.211971
266888351	O	0.642255	0.82753	0.17399
266888351	C	0.604003	0.821663	0.248804
266888351	O	0.746415	0.674606	0.213327
266888351	H	0.623247	0.766274	0.298512
266888351	O	0.718762	0.654726	0.1958
266888351	C	0.713734	0.820775	0.205221
266888351	O	0.616765	0.82065	0.262729
266888351	O	0.609542	0.694344	0.107623
266888351	O	0.648031	0.679111	0.11217
266888351	Fe	0.741041	0.644459	0.178403
266888351	C	0.655616	0.742812	0.329284
266888351	C	0.724699	0.620263	0.337078
266888351	O	0.697512	0.608555	0.312139
266888351	C	0.602967	0.711526	0.27467
266888351	H	0.723658	0.634324	0.242815
266888351	O	0.612648	0.6643	0.12222
266888351	H	0.727873	0.633814	0.099815
266888351	O	0.637139	0.697924	0.187104
266888351	O	0.722154	0.644026	0.155395
266888351	C	0.668087	0.773181	0.17764
266888351	O	0.601553	0.732651	0.320882
266888351	C	0.703897	0.826556	0.223695
266888351	F	0.602907	0.792411	0.199162
266888351	Fe	0.645692	0.821773	0.254779
266888351	C	0.636278	0.747559	0.32173
266888351	C	0.616523	0.808519	0.119754
266888351	O	0.685186	0.797225	0.230326
266888351	H	0.635782	0.62846	0.159015
266888351	C	0.691171	0.651445	0.129206
266888351	C	0.669826	0.650777	0.229187
266888351	O	0.42971	0.783716	0.142347
266888351	C	0.607183	0.777923	0.34323
266888351	H	0.755925	0.779059	0.138385
266888351	O	0.470445	0.632442	0.34353
266888351	C	0.524206	0.739938	0.342997
266888351	H	0.515081	0.670723	0.344292
266888351	C	0.60538	0.652208	0.344478
266888351	H	0.653559	0.726025	0.0986081
266888351	O	0.451	0.673673	0.401279
266888351	O	0.468073	0.633731	0.394546
266888351	C	0.456149	0.619622	0.391221
266888351	Fe	0.440664	0.636841	0.352972
266888351	O	0.451919	0.66139	0.363364
266888351	Fe	0.47217	0.66244	0.383449
266888351	O	0.492402	0.663411	0.407043
266888351	O	0.481632	0.690575	0.377785
266888351	C	0.480091	0.701444	0.362962
266888351	O	0.490767	0.651887	0.364194
266888351	H	0.505037	0.663785	0.398781
266888351	H	0.491283	0.676433	0.413835
266888351	O	0.552156	0.698295	0.359277
266888351	O	0.559096	0.662458	0.379436
266888351	H	0.56427	0.648773	0.380695
266888351	O	0.51766	0.721882	0.416097
266888351	F	0.536649	0.75894	0.417278
266888351	C	0.529373	0.725304	0.356642
266888351	C	0.493505	0.717168	0.359758
266888351	C	0.514008	0.713678	0.365507
266888351	H	0.517923	0.701581	0.374348
266888351	H	0.525628	0.723101	0.403883
266888351	O	0.543854	0.634738	0.4164
266888351	H	0.550229	0.629081	0.404973
266888351	O	0.540934	0.769354	0.368154
266888351	O	0.503626	0.824038	0.367529
266888351	Fe	0.51758	0.823653	0.396171
266888351	O	0.536997	0.819938	0.418862
266888351	O	0.493371	0.81154	0.41151
266888351	O	0.475872	0.833922	0.431121
266888351	C	0.47842	0.81573	0.42395
266888351	F	0.524443	0.798617	0.387746
266888351	C	0.473578	0.779694	0.428726
266888351	H	0.48149	0.777763	0.414848
266888351	O	0.461573	0.631787	0.506339
266888351	C	0.45177	0.642352	0.518029
266888351	O	0.444833	0.624626	0.446826
266888351	C	0.461559	0.622791	0.454905
266888351	O	0.455274	0.660504	0.581421
266888351	O	0.483888	0.643423	0.555347
266888351	H	0.49487	0.633367	0.55445
266888351	H	0.489975	0.655254	0.549611
266888351	C	0.440616	0.754197	0.553626
266888351	O	0.483721	0.730429	0.445627
266888351	O	0.50541	0.754034	0.440488
266888351	C	0.486963	0.747813	0.440731
266888351	Fe	0.531136	0.740458	0.437104
266888351	O	0.558769	0.726904	0.431055
266888351	O	0.567344	0.721726	0.461494
266888351	O	0.510504	0.714037	0.498286
266888351	O	0.542121	0.719477	0.496094
266888351	C	0.525931	0.722177	0.505269
266888351	O	0.543108	0.760205	0.456794
266888351	Fe	0.498166	0.722019	0.471333
266888351	O	0.524926	0.722285	0.458542
266888351	Fe	0.543275	0.703136	0.469642
266888351	O	0.56236	0.683839	0.482333
266888351	O	0.545753	0.686971	0.442563
266888351	H	0.543714	0.69561	0.430951
266888351	O	0.520562	0.681959	0.476684
266888351	O	0.469558	0.722015	0.485213
266888351	O	0.498887	0.751303	0.4801
266888351	O	0.493929	0.692825	0.462231
266888351	H	0.513144	0.755063	0.478452
266888351	C	0.505588	0.678825	0.465491
266888351	H	0.459841	0.714487	0.47734
266888351	H	0.471358	0.714194	0.497591
266888351	C	0.482788	0.65195	0.455786
266888351	C	0.493703	0.622493	0.437169
266888351	C	0.501887	0.659752	0.456728
266888351	C	0.512275	0.631904	0.434925
266888351	C	0.516834	0.649299	0.44651
266888351	C	0.478476	0.633718	0.447279
266888351	H	0.530849	0.656497	0.444441
266888351	H	0.472134	0.659241	0.464933
266888351	C	0.450361	0.617261	0.544713
266888351	C	0.444766	0.698069	0.583898
266888351	C	0.464016	0.705995	0.579944
266888351	C	0.444474	0.734214	0.563086
266888351	C	0.463414	0.724699	0.568502
266888351	H	0.454557	0.751962	0.466435
266888351	C	0.560455	0.607835	0.463295
266888351	H	0.562106	0.613954	0.448102
266888351	C	0.52404	0.736761	0.522355
266888351	C	0.515718	0.732281	0.540579
266888351	H	0.512662	0.716598	0.544693
266888351	H	0.499291	0.749657	0.495214
266888351	O	0.519229	0.615083	0.404178
266888351	C	0.525614	0.626029	0.418168
266888351	O	0.519993	0.809435	0.534976
266888351	O	0.538601	0.796333	0.513551
266888351	C	0.525366	0.793576	0.526043
266888351	Fe	0.566954	0.802812	0.521141
266888351	O	0.568742	0.817841	0.494982
266888351	O	0.559854	0.827464	0.535638
266888351	Fe	0.573412	0.831276	0.560723
266888351	O	0.562014	0.787318	0.548469
266888351	O	0.554007	0.811097	0.570683
266888351	C	0.555294	0.792772	0.566001
266888351	F	0.574579	0.779321	0.508136
266888351	O	0.446397	0.830771	0.531356
266888351	O	0.451628	0.807649	0.554575
266888351	C	0.456537	0.824093	0.546904
266888351	O	0.446428	0.802489	0.496832
266888351	C	0.550272	0.777834	0.581185
266888351	C	0.460059	0.80112	0.455446
266888351	C	0.458686	0.765568	0.458147
266888351	C	0.469131	0.798917	0.435899
266888351	C	0.470968	0.763391	0.440992
266888351	C	0.453239	0.784157	0.466562
266888351	H	0.457227	0.816216	0.461789
266888351	C	0.512475	0.767077	0.549424
266888351	C	0.526738	0.756846	0.518046
266888351	C	0.512502	0.746908	0.554304
266888351	C	0.52051	0.772522	0.530636
266888351	H	0.535283	0.759637	0.504808
266888351	H	0.50991	0.777349	0.561093
266888351	C	0.484854	0.825377	0.573431
266888351	C	0.472626	0.834859	0.558546
266888351	H	0.484246	0.809844	0.574279
266888351	H	0.549431	0.752688	0.467173
266888351	C	0.509301	0.74054	0.575476
266888351	C	0.550377	0.716754	0.356057
266888351	C	0.443824	0.786109	0.487242
266888351	H	0.446806	0.681507	0.435201
266888351	C	0.438872	0.688089	0.397173
266888351	O	0.43585	0.69534	0.379078
266888351	H	0.578584	0.764136	0.580603
266888351	H	0.477041	0.732133	0.564136
266888351	C	0.563622	0.763019	0.586863
266888351	H	0.538026	0.805204	0.421103
266888351	O	0.542134	0.836689	0.383099
266888351	O	0.539887	0.831608	0.499822
266888351	C	0.557483	0.832375	0.492623
266888351	Fe	0.447345	0.607851	0.493533
266888351	H	0.562297	0.669508	0.392376
266888351	O	0.520261	0.726921	0.583167
266888351	C	0.446001	0.63574	0.537733
266888351	O	0.443411	0.656654	0.51029
266888351	O	0.443835	0.620639	0.377404
266888351	C	0.559582	0.765148	0.369788
266888351	O	0.490194	0.678669	0.578578
266888351	O	0.465178	0.614588	0.471883
266888351	Fe	0.575399	0.678655	0.358993
266888351	H	0.490758	0.608546	0.429738
266888351	H	0.548045	0.805081	0.451937
266888351	C	0.577464	0.608067	0.475047
266888351	H	0.55951	0.682716	0.440016
266888351	H	0.555355	0.6777	0.493194
266888351	O	0.565733	0.752039	0.383917
266888351	O	0.450895	0.82147	0.380407
266888351	O	0.562151	0.804885	0.455281
266888351	C	0.571929	0.72117	0.443568
266888351	O	0.438726	0.755429	0.534417
266888351	C	0.570772	0.822934	0.451327
266888351	O	0.508215	0.637083	0.587676
266888351	Fe	0.48133	0.64901	0.584776
266888351	H	0.536145	0.611303	0.572742
266888351	C	0.440328	0.650413	0.585622
266888351	H	0.563554	0.672657	0.472972
266888351	H	0.554064	0.744855	0.390356
266888351	O	0.576884	0.708345	0.586621
266888351	H	0.576343	0.835385	0.397477
266888351	O	0.43618	0.769205	0.56489
266888351	C	0.48276	0.693838	0.587933
266888351	O	0.58876	0.693043	0.381423
266888351	H	0.462033	0.609455	0.537004
266888351	C	0.437953	0.608152	0.55892
266888351	C	0.454379	0.600808	0.401791
266888351	Fe	0.533082	0.838297	0.530124
266888351	C	0.544531	0.610931	0.586554
266888351	C	0.495288	0.836582	0.588211
266888351	H	0.506165	0.816964	0.451833
266888351	H	0.487864	0.759709	0.581646
266888351	Fe	0.442702	0.684837	0.350409
266888351	O	0.514589	0.826781	0.444068
266888351	C	0.499796	0.83865	0.355638
266888351	O	0.471577	0.619581	0.589683
266888351	H	0.588314	0.820341	0.363108
266888351	O	0.497721	0.751595	0.589073
266888351	C	0.433803	0.69009	0.433427
266888351	H	0.589754	0.721234	0.407165
266888351	H	0.564864	0.701015	0.590361
266888351	C	0.578151	0.597206	0.492717
266888351	H	0.524754	0.831547	0.454087
266888351	O	0.430497	0.773003	0.493613
266888351	C	0.487228	0.64221	0.347606
266888351	H	0.433362	0.834509	0.479721
266888351	C	0.573742	0.776216	0.357112
266888351	H	0.436867	0.664098	0.54813
266888351	H	0.755804	0.657413	0.568753
266888351	C	0.543002	0.597884	0.470751
266888351	H	0.497496	0.836209	0.52128
266888351	C	0.590448	0.709016	0.43695
266888351	H	0.591494	0.62963	0.51237
266888351	C	0.427953	0.696578	0.414607
266888351	O	0.46773	0.697999	0.349798
266888351	C	0.557434	0.595297	0.591113
266888351	C	0.592334	0.824507	0.452587
266888351	O	0.759997	0.781548	0.519391
266888351	O	0.588134	0.834936	0.587249
266888351	C	0.43813	0.833965	0.386732
266888351	H	0.441335	0.687264	0.593329
266888351	H	0.525563	0.794569	0.591059
266888351	H	0.593206	0.595707	0.500575
266888351	H	0.724809	0.608791	0.591349
266888351	H	0.58866	0.663295	0.518894
266888351	H	0.682577	0.834614	0.422775
266888351	O	0.591607	0.66699	0.505324
266888351	O	0.428296	0.66913	0.475156
266888351	O	0.759657	0.657494	0.493083
266888351	H	0.440476	0.822409	0.411735
266888351	O	0.560836	0.838681	0.447265
266888351	H	0.602546	0.838683	0.584944
266888351	H	0.480289	0.598713	0.509708
266888351	O	0.606093	0.59536	0.540978
266888351	Fe	0.639527	0.623464	0.461529
266888351	H	0.440231	0.834438	0.345579
266888351	O	0.594717	0.808644	0.555716
266888351	F	0.6324	0.752522	0.398132
266888351	O	0.760333	0.720637	0.420464
266888351	C	0.62535	0.676632	0.593111
266888351	H	0.435864	0.597993	0.347851
266888351	Fe	0.625398	0.821916	0.364767
266888351	O	0.716884	0.60654	0.377625
266888351	H	0.5977	0.605408	0.548252
266888351	O	0.432998	0.833749	0.406638
266888351	C	0.602789	0.843371	0.454366
266888351	H	0.71609	0.841498	0.515103
266888351	C	0.685461	0.755916	0.477358
266888351	O	0.685757	0.798074	0.594564
266888351	O	0.750916	0.605531	0.37632
266888351	C	0.428345	0.619792	0.571952
266888351	C	0.758684	0.652649	0.4747
266888351	H	0.645733	0.608065	0.541648
266888351	O	0.640707	0.615396	0.432508
266888351	C	0.63378	0.661085	0.561816
266888351	Fe	0.615187	0.64945	0.497331
266888351	O	0.688734	0.609407	0.58208
266888351	O	0.681707	0.628426	0.488576
266888351	O	0.732694	0.730279	0.359372
266888351	H	0.757007	0.840978	0.566317
266888351	C	0.593223	0.767694	0.354881
266888351	H	0.687977	0.612107	0.567706
266888351	H	0.760337	0.695641	0.450643
266888351	C	0.740943	0.639065	0.445712
266888351	H	0.70963	0.825164	0.564808
266888351	C	0.595812	0.619599	0.47074
266888351	O	0.662806	0.669178	0.475331
266888351	C	0.686367	0.734009	0.446833
266888351	C	0.64844	0.652067	0.550412
266888351	H	0.69211	0.635804	0.432303
266888351	H	0.732683	0.721416	0.518046
266888351	C	0.623313	0.844506	0.457458
266888351	Fe	0.747848	0.754407	0.511876
266888351	C	0.733742	0.611217	0.369908
266888351	O	0.610854	0.706584	0.563808
266888351	O	0.635411	0.798409	0.347309
266888351	Fe	0.699075	0.774832	0.515473
266888351	C	0.604244	0.807186	0.540099
266888351	O	0.750513	0.68917	0.354096
266888351	H	0.695394	0.829003	0.45636
266888351	O	0.669449	0.841391	0.424915
266888351	C	0.62425	0.800535	0.542813
266888351	O	0.563663	0.725366	0.346248
266888351	C	0.71855	0.840823	0.499652
266888351	C	0.624982	0.810568	0.447052
266888351	O	0.734863	0.701945	0.390387
266888351	C	0.662253	0.63892	0.560098
266888351	C	0.62751	0.78207	0.351084
266888351	H	0.596398	0.840629	0.500309
266888351	C	0.61543	0.682923	0.44239
266888351	C	0.646825	0.645532	0.591692
266888351	O	0.705881	0.724994	0.377772
266888351	C	0.72425	0.63387	0.435743
266888351	H	0.59886	0.756107	0.364494
266888351	O	0.627192	0.783809	0.424144
266888351	H	0.723688	0.727876	0.49728
266888351	H	0.694359	0.745225	0.440071
266888351	H	0.703072	0.662082	0.370798
266888351	O	0.59589	0.807712	0.523112
266888351	Fe	0.65831	0.620808	0.508496
266888351	C	0.675624	0.793419	0.389969
266888351	O	0.638052	0.631091	0.489714
266888351	C	0.705308	0.831505	0.4872
266888351	H	0.65442	0.661694	0.483864
266888351	C	0.674576	0.620615	0.591318
266888351	O	0.668066	0.634199	0.458352
266888351	C	0.726238	0.617353	0.422496
266888351	H	0.628781	0.670183	0.414991
266888351	H	0.733596	0.662413	0.409674
266888351	O	0.601441	0.780079	0.391683
266888351	O	0.741734	0.616176	0.413765
266888351	C	0.606559	0.692911	0.38646
266888351	C	0.696414	0.765292	0.376884
266888351	C	0.625084	0.781378	0.551352
266888351	C	0.700209	0.708533	0.423671
266888351	H	0.615918	0.704964	0.5509
266888351	H	0.601436	0.71786	0.563514
266888351	O	0.729893	0.822921	0.386474
266888351	H	0.682408	0.762275	0.56767
266888351	C	0.733875	0.626244	0.354253
266888351	Fe	0.742354	0.696065	0.417143
266888351	O	0.652275	0.692612	0.498725
266888351	C	0.604188	0.808328	0.449625
266888351	C	0.73078	0.773724	0.369207
266888351	O	0.734487	0.753228	0.539793
266888351	H	0.63355	0.830282	0.546338
266888351	C	0.678054	0.73827	0.466515
266888351	O	0.661053	0.648434	0.518142
266888351	C	0.732658	0.838647	0.437665
266888351	O	0.714686	0.823331	0.57851
266888351	O	0.631754	0.663056	0.520526
266888351	C	0.632788	0.659166	0.582585
266888351	H	0.615613	0.769989	0.54573
266888351	O	0.702551	0.75158	0.533155
266888351	O	0.627263	0.650103	0.450761
266888351	O	0.694294	0.69768	0.409861
266888351	H	0.754717	0.638193	0.438855
266888351	C	0.704512	0.799605	0.371091
266888351	C	0.644608	0.793875	0.57857
266888351	H	0.605522	0.635579	0.531662
266888351	O	0.662915	0.780446	0.397294
266888351	C	0.595642	0.709572	0.416959
266888351	H	0.73821	0.692205	0.454427
266888351	H	0.596136	0.69626	0.46457
266888351	Fe	0.633426	0.716827	0.581862
266888351	O	0.596589	0.637823	0.475394
266888351	O	0.673905	0.812292	0.391726
266888351	C	0.738843	0.646214	0.357141
266888351	O	0.73042	0.744635	0.467012
266888351	C	0.682804	0.634388	0.470494
266888351	O	0.624988	0.83999	0.414603
266888351	O	0.605248	0.629494	0.517886
266888351	H	0.596402	0.790398	0.400879
266888351	C	0.60022	0.695806	0.449684
266888351	C	0.724536	0.841224	0.458507
266888351	C	0.717584	0.736844	0.368538
266888351	H	0.712919	0.789757	0.548299
266888351	C	0.622058	0.667361	0.457383
266888351	C	0.706438	0.809836	0.489442
266888351	O	0.718791	0.712901	0.425247
266888351	H	0.717896	0.791597	0.43968
266888351	C	0.692787	0.78613	0.38007
266888351	O	0.682989	0.756804	0.496022
266888351	H	0.747586	0.650706	0.37008
266888351	C	0.733858	0.682044	0.347789
266888351	O	0.695284	0.768965	0.467324
266888351	H	0.746225	0.7693	0.367149
266888351	C	0.618948	0.682094	0.421695
266888351	O	0.72812	0.782357	0.443325
266888351	O	0.715459	0.793336	0.533951
266888351	O	0.619976	0.690778	0.372424
266888351	H	0.659054	0.83976	0.510942
266888351	O	0.63473	0.771746	0.36524
266888351	C	0.63464	0.777944	0.568701
266888351	C	0.634158	0.827039	0.454925
266888351	H	0.708593	0.80652	0.53308
266888351	O	0.718031	0.691199	0.351713
266888351	C	0.724913	0.794295	0.368614
266888351	H	0.741996	0.737151	0.571404
266888351	Fe	0.632244	0.779457	0.393791
266888351	C	0.706304	0.835651	0.466462
266888351	H	0.597217	0.79402	0.444246
266888351	C	0.73901	0.647065	0.464889
266888351	F	0.650642	0.71097	0.561096
266888351	H	0.697174	0.66182	0.391451
266888351	C	0.634908	0.798178	0.431938
266888351	C	0.686554	0.714737	0.439915
266888351	O	0.597282	0.65721	0.360469
266888351	H	0.674318	0.632947	0.551804
266888351	H	0.665321	0.769844	0.530129
266888351	Fe	0.725059	0.774319	0.47316
266888351	C	0.715444	0.758852	0.371168
266888351	H	0.596295	0.767309	0.39638
266888351	C	0.646871	0.812047	0.569119
266888351	H	0.729407	0.743928	0.45254
266888351	H	0.648904	0.603552	0.431817
266888351	O	0.611575	0.60998	0.46464
266888351	C	0.668616	0.72339	0.477204
266888351	H	0.627289	0.608793	0.429328
266888351	C	0.647135	0.65534	0.528852
266888351	C	0.667172	0.704407	0.469297
266888351	C	0.653592	0.82836	0.58231
266888351	C	0.740612	0.633923	0.581931
266888351	O	0.651541	0.803438	0.424462
266888351	C	0.609793	0.69626	0.408326
266888351	C	0.660382	0.635189	0.580966
266888351	Fe	0.650643	0.8255	0.405307
266888351	C	0.636468	0.815425	0.55098
266888351	H	0.66377	0.725798	0.492471
266888351	O	0.633943	0.808663	0.388104
266888351	C	0.716432	0.75106	0.545522
266888351	C	0.719364	0.647926	0.47396
266888351	H	0.623281	0.671273	0.554713
266888351	O	0.597065	0.809691	0.368883
266888351	H	0.597333	0.680524	0.505919
266888351	H	0.684872	0.754636	0.378307
266888351	C	0.630811	0.76016	0.579596
266888351	C	0.705431	0.637899	0.442335
266888351	C	0.696451	0.759414	0.576465
266888351	C	0.660835	0.68785	0.482155
266888351	H	0.677349	0.784538	0.542762
266888351	C	0.738089	0.811196	0.374352
266888351	C	0.748172	0.6	0.571163
266888351	O	0.724273	0.671162	0.417087
266888351	O	0.720155	0.802215	0.480033
266888351	H	0.739856	0.791728	0.444296
266888351	C	0.676837	0.700035	0.450642
266888351	O	0.637329	0.613652	0.531128
266888351	H	0.649858	0.826637	0.453768
266888351	H	0.700743	0.815626	0.369433
266888351	O	0.723562	0.767654	0.500689
266888351	O	0.693279	0.800057	0.498238
266888351	H	0.718511	0.650805	0.488672
266888351	F	0.682194	0.690133	0.370711
266888351	O	0.671482	0.832874	0.580804
266888351	O	0.630399	0.744074	0.570383
266888351	O	0.74882	0.688391	0.445978
266888351	O	0.709339	0.664579	0.384076
266888351	C	0.752025	0.641545	0.56738
266888351	O	0.622041	0.670706	0.476836
266888351	O	0.67352	0.782102	0.529333
266888351	O	0.713059	0.603983	0.42156
266888351	Fe	0.707937	0.695637	0.380747
266888351	C	0.72938	0.745039	0.577987
266888351	O	0.736214	0.72661	0.505084
266888351	C	0.735762	0.613588	0.581655
266888351	C	0.712962	0.749962	0.567183
266888351	C	0.702413	0.642606	0.462494
266888351	H	0.724938	0.833094	0.581007
266888351	F	0.676619	0.610716	0.524738
266888351	O	0.749493	0.831053	0.436669
266888351	O	0.75379	0.781694	0.476904
266888351	O	0.652267	0.836606	0.360043
266888351	Fe	0.754386	0.713314	0.372275
266888351	H	0.676525	0.684984	0.445225
266888351	O	0.755462	0.813914	0.367027
266888351	C	0.488945	0.732672	0.346598
266888351	H	0.47857	0.610845	0.580562
266888351	O	0.650882	0.595485	0.466762
266888351	C	0.429833	0.64074	0.56931
266888351	C	0.436076	0.648363	0.550505
266888351	F	0.681819	0.595325	0.396793
266888351	H	0.588489	0.8217	0.593686
266888351	C	0.533478	0.781316	0.592942
266888351	O	0.527735	0.761363	0.682521
266888351	O	0.49412	0.763557	0.659736
266888351	H	0.533127	0.764933	0.69548
266888351	H	0.539916	0.757958	0.675082
266888351	Fe	0.454243	0.650588	0.628835
266888351	O	0.469592	0.651836	0.655072
266888351	C	0.48661	0.643748	0.658226
266888351	O	0.50073	0.649149	0.647109
266888351	O	0.522238	0.657208	0.610088
266888351	O	0.457636	0.620671	0.629071
266888351	O	0.479093	0.655026	0.612849
266888351	Fe	0.498695	0.671508	0.625711
266888351	O	0.519228	0.689717	0.63904
266888351	O	0.479669	0.686969	0.643635
266888351	C	0.463547	0.693335	0.637696
266888351	H	0.518505	0.684522	0.65259
266888351	H	0.513352	0.70304	0.640048
266888351	O	0.583175	0.711705	0.737934
266888351	C	0.567161	0.702289	0.741477
266888351	O	0.568247	0.686403	0.752021
266888351	O	0.587167	0.653121	0.735117
266888351	C	0.507883	0.74873	0.753855
266888351	O	0.508556	0.663881	0.745425
266888351	O	0.480762	0.680703	0.744211
266888351	C	0.498801	0.678996	0.740978
266888351	Fe	0.507683	0.639515	0.76219
266888351	Fe	0.462541	0.658742	0.755361
266888351	O	0.439747	0.669601	0.737524
266888351	O	0.44481	0.633746	0.76429
266888351	O	0.469031	0.639973	0.731905
266888351	O	0.533753	0.629974	0.749857
266888351	O	0.495619	0.622986	0.739514
266888351	C	0.482025	0.627529	0.728031
266888351	H	0.531003	0.616001	0.747164
266888351	H	0.532992	0.636344	0.737114
266888351	H	0.551124	0.63961	0.627864
266888351	C	0.574111	0.616616	0.71337
266888351	H	0.562247	0.627724	0.715761
266888351	C	0.50471	0.716642	0.737624
266888351	C	0.538717	0.728126	0.740927
266888351	C	0.511527	0.696758	0.73406
266888351	C	0.546523	0.709323	0.735747
266888351	C	0.532476	0.693984	0.732179
266888351	C	0.517393	0.73236	0.741673
266888351	H	0.548805	0.73869	0.747841
266888351	H	0.537786	0.678865	0.732898
266888351	H	0.489849	0.718395	0.742969
266888351	C	0.470557	0.729475	0.645193
266888351	C	0.463358	0.749622	0.647704
266888351	C	0.457731	0.714456	0.639473
266888351	H	0.485617	0.726455	0.650041
266888351	C	0.484828	0.63463	0.692939
266888351	C	0.48799	0.627913	0.673378
266888351	C	0.481904	0.620546	0.70769
266888351	H	0.485116	0.649955	0.696386
266888351	O	0.461406	0.827628	0.650771
266888351	Fe	0.477322	0.80244	0.637368
266888351	O	0.496129	0.780312	0.62273
266888351	C	0.51564	0.77584	0.62545
266888351	O	0.525183	0.777462	0.642016
266888351	O	0.541404	0.819571	0.647213
266888351	O	0.539535	0.800694	0.673494
266888351	C	0.550269	0.808665	0.660016
266888351	O	0.483966	0.818966	0.613904
266888351	Fe	0.513159	0.831528	0.651755
266888351	O	0.500589	0.806616	0.651563
266888351	Fe	0.513975	0.784867	0.666764
266888351	O	0.468351	0.782611	0.658191
266888351	C	0.475769	0.765565	0.656393
266888351	O	0.500461	0.794463	0.690331
266888351	O	0.507992	0.826395	0.68403
266888351	C	0.49825	0.82907	0.608243
266888351	C	0.496184	0.812339	0.691932
266888351	O	0.514249	0.766364	0.753039
266888351	C	0.461114	0.800875	0.700419
266888351	C	0.451036	0.834668	0.721697
266888351	C	0.47624	0.816254	0.702275
266888351	C	0.470874	0.83265	0.714091
266888351	C	0.441376	0.802591	0.70699
266888351	H	0.464484	0.787949	0.692413
266888351	C	0.579657	0.797522	0.679906
266888351	C	0.57291	0.805537	0.661942
266888351	H	0.569385	0.791558	0.690204
266888351	Fe	0.587493	0.66584	0.762063
266888351	O	0.56316	0.648321	0.769998
266888351	C	0.582343	0.696408	0.791647
266888351	H	0.56523	0.644667	0.783753
266888351	H	0.564912	0.636797	0.762407
266888351	O	0.496988	0.743591	0.76851
266888351	Fe	0.483818	0.756961	0.79394
266888351	O	0.466911	0.731596	0.795787
266888351	O	0.506403	0.743767	0.810258
266888351	O	0.530717	0.749529	0.789299
266888351	C	0.523147	0.739225	0.802612
266888351	O	0.507257	0.612651	0.777453
266888351	O	0.502685	0.626124	0.805986
266888351	Fe	0.478061	0.644121	0.801019
266888351	O	0.452893	0.661825	0.802232
266888351	C	0.446716	0.676388	0.792903
266888351	O	0.45137	0.678582	0.775302
266888351	O	0.499012	0.666631	0.807706
266888351	O	0.482659	0.64831	0.772881
266888351	O	0.460674	0.620353	0.791506
266888351	C	0.450238	0.618504	0.774649
266888351	O	0.522164	0.655528	0.785112
266888351	C	0.516735	0.666706	0.799944
266888351	C	0.553736	0.717245	0.800945
266888351	C	0.550922	0.681967	0.804248
266888351	C	0.533075	0.718849	0.805405
266888351	C	0.530088	0.683505	0.805427
266888351	C	0.521277	0.70207	0.807659
266888351	C	0.562734	0.699088	0.801333
266888351	H	0.558484	0.667754	0.80287
266888351	H	0.504799	0.702945	0.810148
266888351	H	0.561443	0.72966	0.796837
266888351	O	0.539855	0.787642	0.801885
266888351	O	0.519749	0.812269	0.812692
266888351	C	0.535748	0.8017	0.813536
266888351	Fe	0.490822	0.805403	0.800804
266888351	O	0.460741	0.798796	0.792196
266888351	C	0.452474	0.784758	0.781856
266888351	O	0.462907	0.769502	0.776396
266888351	O	0.496827	0.818617	0.775063
266888351	Fe	0.525828	0.777801	0.77774
266888351	O	0.500793	0.779586	0.791805
266888351	O	0.486182	0.795917	0.828466
266888351	O	0.468632	0.768774	0.82141
266888351	C	0.471608	0.784331	0.832025
266888351	O	0.554335	0.776093	0.764182
266888351	O	0.525184	0.807365	0.767394
266888351	C	0.513561	0.821759	0.769228
266888351	H	0.550721	0.778168	0.749732
266888351	H	0.561929	0.787023	0.769391
266888351	F	0.482524	0.829108	0.809654
266888351	H	0.577218	0.802291	0.813365
266888351	C	0.56493	0.611318	0.62294
266888351	C	0.552701	0.627612	0.617321
266888351	C	0.570101	0.802614	0.827631
266888351	C	0.549326	0.803472	0.830396
266888351	C	0.506336	0.610914	0.796187
266888351	H	0.541046	0.746645	0.628571
266888351	F	0.455104	0.795565	0.623299
266888351	H	0.457929	0.732087	0.783687
266888351	C	0.443818	0.753824	0.64313
266888351	H	0.475483	0.720311	0.793142
266888351	O	0.577897	0.726835	0.623117
266888351	H	0.585241	0.816509	0.633996
266888351	H	0.447251	0.615829	0.619882
266888351	C	0.529377	0.769039	0.609497
266888351	O	0.451085	0.681301	0.630276
266888351	H	0.455181	0.701997	0.820956
266888351	H	0.451844	0.61788	0.641901
266888351	C	0.484111	0.60747	0.66836
266888351	C	0.578134	0.743127	0.613956
266888351	C	0.54273	0.753682	0.614551
266888351	O	0.588366	0.678771	0.789165
266888351	C	0.588556	0.81122	0.647822
266888351	F	0.473667	0.638809	0.827628
266888351	O	0.573376	0.683173	0.623202
266888351	H	0.579602	0.676018	0.634046
266888351	H	0.43783	0.768723	0.645027
266888351	C	0.437755	0.718672	0.639803
266888351	C	0.439739	0.70257	0.817928
266888351	O	0.512942	0.833604	0.620324
266888351	O	0.590362	0.710053	0.780436
266888351	O	0.583285	0.836065	0.753866
266888351	O	0.489067	0.69517	0.606054
266888351	C	0.477352	0.600937	0.703658
266888351	C	0.435717	0.820369	0.717236
266888351	H	0.483955	0.600833	0.653756
266888351	C	0.560862	0.751295	0.604208
266888351	O	0.436065	0.64686	0.603575
266888351	H	0.563763	0.692542	0.63063
266888351	O	0.576457	0.628207	0.652454
266888351	C	0.575174	0.611783	0.642248
266888351	H	0.527026	0.841694	0.738607
266888351	C	0.520205	0.843	0.768587
266888351	H	0.431603	0.777934	0.746268
266888351	O	0.593303	0.75343	0.614106
266888351	C	0.432532	0.690629	0.802387
266888351	F	0.430542	0.647986	0.643613
266888351	C	0.431523	0.738052	0.642349
266888351	O	0.715502	0.817411	0.621468
266888351	O	0.685752	0.594973	0.828478
266888351	H	0.596064	0.840684	0.82038
266888351	O	0.566098	0.841201	0.726236
266888351	O	0.673393	0.826532	0.621309
266888351	H	0.733751	0.7242	0.646188
266888351	H	0.593476	0.598994	0.660694
266888351	O	0.594627	0.812747	0.719067
266888351	O	0.58618	0.595633	0.647845
266888351	H	0.482469	0.595332	0.764756
266888351	C	0.585811	0.595555	0.833052
266888351	C	0.567866	0.842911	0.74475
266888351	H	0.675464	0.597172	0.817821
266888351	F	0.428967	0.727794	0.717524
266888351	C	0.567355	0.595324	0.6092
266888351	C	0.653331	0.703867	0.772905
266888351	C	0.664153	0.696516	0.68925
266888351	C	0.704194	0.736136	0.651854
266888351	C	0.570289	0.596464	0.706995
266888351	C	0.598613	0.629759	0.843082
266888351	O	0.640049	0.678126	0.723246
266888351	O	0.642449	0.835008	0.596166
266888351	C	0.63375	0.844506	0.79664
266888351	C	0.5404	0.627042	0.599863
266888351	O	0.736622	0.738664	0.788939
266888351	H	0.747766	0.803208	0.839461
266888351	C	0.449611	0.597873	0.764271
266888351	C	0.522514	0.641628	0.598714
266888351	C	0.435792	0.843131	0.832921
266888351	C	0.594735	0.615936	0.828078
266888351	O	0.630207	0.598271	0.643065
266888351	H	0.615203	0.711205	0.688613
266888351	C	0.627217	0.814538	0.640876
266888351	O	0.607364	0.67845	0.598492
266888351	H	0.739734	0.636533	0.766829
266888351	O	0.734661	0.599382	0.766906
266888351	O	0.756361	0.760988	0.621597
266888351	H	0.48261	0.843279	0.716938
266888351	H	0.636792	0.600521	0.629921
266888351	Fe	0.594406	0.703363	0.612032
266888351	H	0.757452	0.682958	0.777355
266888351	O	0.629474	0.762302	0.59814
266888351	H	0.646818	0.733266	0.797754
266888351	O	0.613272	0.697456	0.63647
266888351	O	0.75367	0.637941	0.761712
266888351	O	0.647987	0.736487	0.628028
266888351	Fe	0.757602	0.759196	0.799721
266888351	H	0.600173	0.609205	0.796296
266888351	C	0.59413	0.621679	0.718132
266888351	C	0.691461	0.712776	0.786436
266888351	H	0.635901	0.608664	0.652325
266888351	H	0.621531	0.799859	0.746772
266888351	H	0.437071	0.682663	0.742733
266888351	C	0.599707	0.814815	0.701717
266888351	O	0.680848	0.78265	0.62363
266888351	H	0.682536	0.780822	0.668277
266888351	Fe	0.608356	0.832323	0.739099
266888351	H	0.628148	0.804489	0.67773
266888351	C	0.610569	0.647135	0.838973
266888351	O	0.748408	0.661344	0.602447
266888351	C	0.598298	0.800364	0.686164
266888351	H	0.646006	0.643124	0.607914
266888351	C	0.708207	0.74134	0.672824
266888351	C	0.668294	0.759178	0.819727
266888351	O	0.603136	0.832293	0.696676
266888351	C	0.600349	0.640942	0.730095
266888351	O	0.680871	0.772409	0.825176
266888351	O	0.733717	0.722961	0.817336
266888351	H	0.606461	0.762148	0.810972
266888351	O	0.70007	0.808454	0.649226
266888351	H	0.736869	0.696824	0.703588
266888351	O	0.744022	0.764064	0.827376
266888351	C	0.6815	0.731537	0.623905
266888351	Fe	0.609067	0.709483	0.75494
266888351	H	0.743783	0.841631	0.655196
266888351	O	0.757418	0.659612	0.674856
266888351	H	0.677468	0.621876	0.680414
266888351	Fe	0.692858	0.82601	0.600936
266888351	C	0.734272	0.810873	0.651227
266888351	C	0.633984	0.706796	0.662627
266888351	F	0.608709	0.736709	0.75528
266888351	O	0.643881	0.804471	0.80355
266888351	H	0.698881	0.702474	0.776654
266888351	O	0.627276	0.708789	0.728001
266888351	O	0.732581	0.671691	0.64345
266888351	O	0.657857	0.726535	0.597735
266888351	H	0.719183	0.831989	0.832637
266888351	C	0.752831	0.753429	0.604883
266888351	O	0.675303	0.619719	0.610526
266888351	C	0.685159	0.73882	0.642873
266888351	C	0.716374	0.762534	0.606677
266888351	O	0.730975	0.683116	0.702634
266888351	Fe	0.620023	0.744526	0.620918
266888351	C	0.618357	0.652156	0.819903
266888351	C	0.732424	0.752444	0.596987
266888351	H	0.717133	0.684434	0.705658
266888351	C	0.652226	0.700255	0.656257
266888351	H	0.729521	0.778257	0.651892
266888351	C	0.695602	0.719906	0.613842
266888351	C	0.630136	0.70779	0.683315
266888351	O	0.61456	0.808125	0.75659
266888351	C	0.688619	0.689882	0.661487
266888351	F	0.738963	0.77817	0.789239
266888351	H	0.716845	0.604682	0.630237
266888351	O	0.641065	0.801706	0.636541
266888351	C	0.691182	0.612539	0.681251
266888351	O	0.656398	0.68694	0.764999
266888351	Fe	0.635654	0.666734	0.751437
266888351	O	0.635755	0.71162	0.771762
266888351	C	0.698432	0.76556	0.596726
266888351	C	0.746049	0.8266	0.657952
266888351	H	0.612416	0.766982	0.649711
266888351	C	0.669564	0.714963	0.785489
266888351	C	0.70389	0.724785	0.798821
266888351	O	0.613196	0.808273	0.829617
266888351	F	0.687721	0.657553	0.615569
266888351	Fe	0.678945	0.800248	0.83759
266888351	C	0.725147	0.607186	0.672183
266888351	O	0.603829	0.641588	0.770711
266888351	O	0.661601	0.649858	0.747786
266888351	O	0.635009	0.828693	0.723347
266888351	H	0.718544	0.769578	0.620294
266888351	O	0.730747	0.599986	0.626524
266888351	H	0.622703	0.832924	0.797732
266888351	C	0.658087	0.816951	0.80234
266888351	C	0.653461	0.838525	0.795014
266888351	O	0.717409	0.68534	0.609037
266888351	C	0.710153	0.63901	0.665979
266888351	C	0.718738	0.72565	0.640306
266888351	C	0.695406	0.736832	0.812298
266888351	O	0.668717	0.785373	0.664729
266888351	O	0.689126	0.681673	0.64508
266888351	O	0.735152	0.679111	0.749673
266888351	O	0.717244	0.65233	0.676077
266888351	C	0.72645	0.726258	0.800177
266888351	O	0.614856	0.722334	0.6034
266888351	C	0.736508	0.647016	0.599639
266888351	O	0.609907	0.681341	0.75516
266888351	C	0.616684	0.643843	0.783636
266888351	H	0.738112	0.612612	0.665542
266888351	C	0.636758	0.696156	0.717371
266888351	O	0.723637	0.734516	0.681325
266888351	H	0.673866	0.745578	0.651705
266888351	C	0.726599	0.701464	0.613966
266888351	F	0.704804	0.801729	0.830357
266888351	O	0.745041	0.701629	0.618646
266888351	O	0.723405	0.642717	0.612339
266888351	C	0.612345	0.637849	0.804681
266888351	H	0.624171	0.612969	0.716016
266888351	H	0.6189	0.771757	0.794174
266888351	H	0.633838	0.764511	0.650043
266888351	O	0.693813	0.749949	0.684265
266888351	H	0.628121	0.665089	0.816502
266888351	O	0.649916	0.76262	0.81938
266888351	O	0.611801	0.774896	0.805428
266888351	C	0.738875	0.790908	0.65692
266888351	O	0.674558	0.81314	0.810899
266888351	Fe	0.67158	0.806473	0.642519
266888351	O	0.704316	0.640984	0.648446
266888351	Fe	0.731825	0.677478	0.671671
266888351	C	0.662729	0.730046	0.798763
266888351	H	0.60113	0.802856	0.759161
266888351	C	0.75177	0.670878	0.740712
266888351	Fe	0.632391	0.785978	0.825575
266888351	O	0.618893	0.644584	0.735709
266888351	Fe	0.757108	0.674789	0.62887
266888351	C	0.601986	0.619904	0.808894
266888351	H	0.654998	0.696238	0.640928
266888351	C	0.613615	0.802851	0.672366
266888351	C	0.668483	0.696718	0.668819
266888351	H	0.646419	0.830142	0.732612
266888351	O	0.748879	0.704318	0.669734
266888351	C	0.675201	0.741133	0.810689
266888351	Fe	0.709566	0.663726	0.629334
266888351	H	0.67568	0.694405	0.700243
266888351	H	0.670194	0.658621	0.738898
266888351	C	0.715755	0.812285	0.639489
266888351	O	0.665493	0.828474	0.663366
266888351	C	0.685647	0.782484	0.605152
266888351	C	0.709294	0.619741	0.674423
266888351	O	0.62359	0.767926	0.640767
266888351	O	0.752974	0.752964	0.665973
266888351	C	0.660956	0.73152	0.61592
266888351	H	0.704391	0.74624	0.821783
266888351	H	0.656934	0.639006	0.738629
266888351	C	0.755658	0.7879	0.668515
266888351	H	0.662196	0.793695	0.675822
266888351	O	0.630945	0.832704	0.639324
266888351	C	0.6447	0.702068	0.696864
266888351	O	0.610636	0.728457	0.645418
266888351	C	0.618119	0.710796	0.647876
266888351	C	0.609103	0.807939	0.652414
266888351	O	0.704632	0.691983	0.671561
266888351	H	0.698176	0.75046	0.698233
266888351	C	0.60984	0.608064	0.715816
266888351	O	0.630959	0.654405	0.778734
266888351	C	0.715011	0.717579	0.622181
266888351	O	0.750447	0.659841	0.724888
266888351	H	0.692623	0.713508	0.599774
266888351	H	0.723106	0.676039	0.740472
266888351	H	0.43725	0.838799	0.801507
266888351	H	0.7608	0.632764	0.699615
266888351	H	0.47339	0.599891	0.819376
266888351	H	0.738789	0.690171	0.836411
266888351	O	0.710428	0.83553	0.844404
266888351	C	0.7522	0.760952	0.843994
266888351	C	0.430042	0.784328	0.778274
266888351	C	0.761021	0.76755	0.674317
266888351	O	0.65085	0.796631	0.844294
266888351	H	0.649234	0.79211	0.59474
266888351	O	0.637944	0.690048	0.594662
266888351	O	0.463255	0.640486	0.920984
266888351	C	0.447506	0.644883	0.930501
266888351	O	0.503122	0.628475	0.915162
266888351	C	0.507737	0.645	0.922388
266888351	O	0.49186	0.752769	0.884313
266888351	C	0.562874	0.745628	0.90204
266888351	O	0.556153	0.730285	0.91005
266888351	O	0.51567	0.744127	0.916267
266888351	O	0.527354	0.729955	0.878462
266888351	O	0.519669	0.703249	0.903791
266888351	H	0.508623	0.709145	0.896433
266888351	C	0.584486	0.745125	0.898362
266888351	C	0.472586	0.69661	0.908696
266888351	C	0.487795	0.665022	0.89792
266888351	C	0.498043	0.663765	0.915788
266888351	C	0.473652	0.68054	0.895118
266888351	H	0.489219	0.652957	0.886654
266888351	H	0.463516	0.710038	0.905519
266888351	H	0.53301	0.730764	0.864908
266888351	H	0.531521	0.699842	0.895146
266888351	C	0.461428	0.681964	0.876496
266888351	O	0.480101	0.764756	0.912611
266888351	C	0.477676	0.761701	0.894922
266888351	Fe	0.521349	0.75669	0.890788
266888351	O	0.551692	0.760176	0.896575
266888351	O	0.515498	0.785056	0.90031
266888351	C	0.516366	0.791861	0.917767
266888351	F	0.525647	0.767339	0.865218
266888351	C	0.522971	0.813175	0.921369
266888351	C	0.527882	0.8276	0.906397
266888351	H	0.52343	0.826383	0.890346
266888351	C	0.462942	0.770332	0.864197
266888351	C	0.461475	0.772693	0.884249
266888351	C	0.45347	0.807082	0.881319
266888351	C	0.45531	0.790132	0.893016
266888351	H	0.585012	0.759979	0.869755
266888351	C	0.571884	0.8061	0.863212
266888351	C	0.554026	0.81562	0.862995
266888351	H	0.577491	0.802637	0.877303
266888351	O	0.537631	0.6277	0.0861658
266888351	Fe	0.525635	0.609875	0.065814
266888351	O	0.550974	0.611951	0.0487731
266888351	C	0.568593	0.607343	0.0552621
266888351	O	0.510958	0.634319	0.0509013
266888351	O	0.515691	0.661708	0.0672439
266888351	C	0.508234	0.652581	0.0531749
266888351	O	0.444415	0.640337	0.948948
266888351	O	0.475419	0.65827	0.972557
266888351	O	0.506503	0.648602	0.979343
266888351	C	0.491603	0.660069	0.982223
266888351	O	0.516623	0.645211	0.939494
266888351	O	0.542009	0.739434	0.947805
266888351	C	0.531376	0.745161	0.963139
266888351	Fe	0.530963	0.721547	0.925309
266888351	O	0.548699	0.697962	0.937293
266888351	O	0.507558	0.713727	0.943583
266888351	O	0.481951	0.730166	0.933016
266888351	C	0.490143	0.713395	0.936218
266888351	H	0.549728	0.689137	0.925615
266888351	H	0.540684	0.690743	0.946616
266888351	O	0.579245	0.681093	0.999214
266888351	O	0.580922	0.707793	0.964553
266888351	H	0.571351	0.691792	0.00686518
266888351	O	0.454409	0.749064	0.0554058
266888351	O	0.441902	0.699239	0.040172
266888351	O	0.459747	0.721735	0.0225504
266888351	C	0.457438	0.704142	0.03076
266888351	Fe	0.445464	0.749351	0.0255613
266888351	H	0.471826	0.776552	0.0248113
266888351	H	0.481476	0.750645	0.0825801
266888351	C	0.477574	0.684347	0.00757742
266888351	C	0.483729	0.679189	0.0426827
266888351	C	0.490953	0.669017	0.0024947
266888351	C	0.497475	0.664083	0.0380928
266888351	C	0.500374	0.658945	0.017892
266888351	C	0.473552	0.68894	0.0276624
266888351	H	0.479849	0.683293	0.0579869
266888351	H	0.511993	0.648537	0.0156807
266888351	H	0.469173	0.691705	0.996187
266888351	H	0.587279	0.717848	0.956316
266888351	C	0.581086	0.625906	0.92437
266888351	C	0.572941	0.737399	0.998479
266888351	C	0.562423	0.744142	0.981881
266888351	H	0.570165	0.745811	0.967345
266888351	C	0.484152	0.695786	0.926
266888351	C	0.496182	0.679383	0.930055
266888351	H	0.504985	0.677782	0.943273
266888351	O	0.554283	0.644738	0.912226
266888351	C	0.564015	0.629111	0.910191
266888351	O	0.512313	0.748208	0.961702
266888351	Fe	0.497519	0.75549	0.934905
266888351	O	0.476304	0.768075	0.953544
266888351	O	0.512225	0.781028	0.932622
266888351	H	0.470011	0.758866	0.963662
266888351	C	0.522951	0.823124	0.0315507
266888351	C	0.444937	0.759154	0.0684208
266888351	O	0.473058	0.762414	0.0187846
266888351	H	0.481223	0.755572	0.0289481
266888351	C	0.528515	0.816783	0.940491
266888351	H	0.525848	0.805453	0.952836
266888351	C	0.487762	0.829147	0.0393075
266888351	C	0.476594	0.826868	0.073719
266888351	C	0.5063	0.820256	0.0446937
266888351	C	0.494372	0.817431	0.0788586
266888351	C	0.5095	0.815541	0.06467
266888351	C	0.473872	0.833804	0.0536698
266888351	H	0.52435	0.812208	0.0699019
266888351	C	0.532286	0.744733	0.000707197
266888351	C	0.563075	0.735917	0.016761
266888351	C	0.541916	0.746566	0.98197
266888351	C	0.542369	0.73881	0.0178662
266888351	H	0.571495	0.730311	0.0289726
266888351	H	0.515864	0.747162	0.00271825
266888351	O	0.514547	0.742292	0.0393808
266888351	C	0.532707	0.736271	0.0373473
266888351	O	0.542159	0.725527	0.0517887
266888351	H	0.530663	0.721336	0.0604482
266888351	O	0.557544	0.613036	0.899687
266888351	H	0.546211	0.618752	0.891891
266888351	C	0.539542	0.833326	0.945523
266888351	O	0.517999	0.828555	0.0143074
266888351	O	0.539773	0.827147	0.0390825
266888351	O	0.464247	0.666905	0.863186
266888351	O	0.447965	0.694567	0.874801
266888351	H	0.465266	0.768936	0.943238
266888351	C	0.446395	0.826046	0.89102
266888351	Fe	0.462021	0.630484	0.9705
266888351	Fe	0.510454	0.624636	0.960327
266888351	O	0.482575	0.621889	0.951922
266888351	O	0.539484	0.624552	0.970005
266888351	H	0.456296	0.792056	0.909345
266888351	C	0.458422	0.805977	0.860311
266888351	H	0.547235	0.632264	0.960171
266888351	O	0.572884	0.606814	0.0739097
266888351	O	0.501335	0.604353	0.085915
266888351	Fe	0.477502	0.614756	0.924174
266888351	H	0.46611	0.75743	0.857797
266888351	H	0.54599	0.611068	0.971456
266888351	F	0.442606	0.639246	0.988255
266888351	O	0.478843	0.621321	0.993513
266888351	O	0.438973	0.748347	0.995801
266888351	O	0.457753	0.837915	0.899899
266888351	H	0.48505	0.833856	0.0242928
266888351	O	0.580046	0.834246	0.0274025
266888351	C	0.462144	0.786888	0.851736
266888351	C	0.541343	0.807488	0.848623
266888351	H	0.525433	0.808758	0.851673
266888351	O	0.50322	0.602933	0.981737
266888351	C	0.488406	0.605124	0.993516
266888351	H	0.590919	0.734046	0.92785
266888351	C	0.5559	0.837203	0.859332
266888351	H	0.465531	0.82947	0.085216
266888351	H	0.451719	0.604807	0.00899442
266888351	H	0.574357	0.6452	0.0810053
266888351	H	0.440623	0.647888	0.892674
266888351	C	0.451787	0.757118	0.0887148
266888351	O	0.519543	0.600414	0.943092
266888351	H	0.57133	0.67587	0.988666
266888351	C	0.585942	0.601746	0.0429833
266888351	C	0.588246	0.607123	0.927789
266888351	H	0.546146	0.678096	0.0814721
266888351	O	0.558714	0.838286	0.974828
266888351	H	0.58677	0.657847	0.928307
266888351	H	0.439589	0.762473	0.993556
266888351	O	0.432504	0.778652	0.0252042
266888351	H	0.434712	0.694712	0.997175
266888351	C	0.432395	0.656594	0.921816
266888351	O	0.472993	0.607658	0.894805
266888351	H	0.455657	0.668605	0.850772
266888351	C	0.594568	0.733541	0.99578
266888351	O	0.573853	0.844334	0.858243
266888351	O	0.7606	0.811678	0.0337626
266888351	H	0.462716	0.819148	0.852142
266888351	O	0.674644	0.837679	0.0916703
266888351	C	0.429935	0.65554	0.901334
266888351	O	0.746901	0.698512	0.845684
266888351	H	0.429964	0.743977	0.867073
266888351	O	0.448467	0.602349	0.969765
266888351	H	0.498988	0.594615	0.0454128
266888351	O	0.631918	0.821193	0.895909
266888351	H	0.434107	0.603516	0.967432
266888351	C	0.43485	0.725925	0.845468
266888351	C	0.758529	0.629519	0.074053
266888351	O	0.729062	0.633398	0.994657
266888351	Fe	0.733945	0.620237	0.0384322
266888351	C	0.469838	0.747784	0.0930619
266888351	H	0.756738	0.688712	0.850255
266888351	O	0.428767	0.767753	0.0641009
266888351	C	0.757933	0.79943	0.851382
266888351	O	0.6012	0.71747	0.00177219
266888351	C	0.5936	0.751844	0.880863
266888351	C	0.59348	0.843613	0.0180868
266888351	O	0.646152	0.60034	0.944909
266888351	O	0.741044	0.647628	0.0324381
266888351	H	0.631551	0.725846	0.0900196
266888351	O	0.450456	0.601017	0.931671
266888351	H	0.583078	0.595035	0.919158
266888351	C	0.581653	0.804273	0.845279
266888351	O	0.453094	0.726071	0.849064
266888351	O	0.622712	0.679206	0.999574
266888351	O	0.753181	0.635375	0.869953
266888351	C	0.603294	0.806479	0.845032
266888351	H	0.604708	0.841216	0.0563609
266888351	O	0.547341	0.66855	0.0919
266888351	C	0.590365	0.642882	0.933423
266888351	C	0.602577	0.614463	0.0420097
266888351	H	0.712115	0.82333	0.852743
266888351	H	0.517725	0.600559	0.0320834
266888351	O	0.756006	0.618418	0.059373
266888351	H	0.590082	0.627029	0.857849
266888351	Fe	0.743266	0.668098	0.0517514
266888351	C	0.541489	0.83762	0.967281
266888351	C	0.699666	0.78965	0.91946
266888351	C	0.688847	0.607629	0.946272
266888351	O	0.59977	0.670811	0.96356
266888351	Fe	0.601766	0.694176	0.982435
266888351	O	0.68607	0.787415	0.865456
266888351	H	0.627666	0.683811	0.864176
266888351	C	0.654675	0.601457	0.961656
266888351	C	0.669472	0.714046	0.969291
266888351	C	0.708702	0.646534	0.0678281
266888351	O	0.442795	0.843934	0.061137
266888351	O	0.606053	0.65813	0.872313
266888351	O	0.748285	0.841347	0.851208
266888351	H	0.719024	0.797649	0.87433
266888351	C	0.710306	0.740968	0.999146
266888351	O	0.722867	0.673448	0.00504123
266888351	C	0.696508	0.842599	0.0585095
266888351	O	0.711182	0.61995	0.0175649
266888351	C	0.72231	0.68923	0.0152224
266888351	C	0.68519	0.609363	0.981628
266888351	H	0.616391	0.666447	0.00158656
266888351	H	0.734727	0.686692	0.0820385
266888351	C	0.715963	0.621023	8.85055e-05
266888351	O	0.714837	0.663956	0.0612316
266888351	Fe	0.631473	0.734299	0.974658
266888351	O	0.62701	0.67676	0.851486
266888351	C	0.700401	0.792435	0.898228
266888351	O	0.754564	0.609434	0.0188352
266888351	C	0.717785	0.725889	0.0106859
266888351	O	0.62066	0.769248	0.849036
266888351	O	0.709118	0.836666	0.992968
266888351	O	0.639927	0.724732	0.00262218
266888351	C	0.622438	0.60683	0.0425746
266888351	O	0.624148	0.742772	0.94679
266888351	C	0.694897	0.736913	0.984752
266888351	H	0.600728	0.629707	0.0438635
266888351	C	0.640664	0.618862	0.0396097
266888351	H	0.676989	0.610474	0.995061
266888351	C	0.724723	0.839294	0.0879309
266888351	O	0.726676	0.836506	0.0252144
266888351	O	0.723014	0.832386	0.88463
266888351	Fe	0.642159	0.808039	0.869337
266888351	C	0.609868	0.620652	0.953241
266888351	O	0.676668	0.829065	0.849421
266888351	H	0.617972	0.617392	0.966694
266888351	C	0.618039	0.738059	0.912756
266888351	H	0.737943	0.702348	0.0661517
266888351	C	0.683889	0.794613	0.883023
266888351	O	0.756287	0.74325	0.848572
266888351	C	0.719692	0.761597	0.999906
266888351	O	0.745356	0.691045	0.0720815
266888351	H	0.654681	0.724903	0.0025264
266888351	C	0.687049	0.716834	0.983142
266888351	C	0.722314	0.791578	0.953935
266888351	H	0.676846	0.80789	0.981887
266888351	C	0.597587	0.738328	0.913717
266888351	C	0.629581	0.734051	0.930777
266888351	H	0.653383	0.643098	0.0316809
266888351	O	0.612368	0.807771	0.86174
266888351	O	0.670175	0.80653	0.884876
266888351	Fe	0.71108	0.806217	0.996601
266888351	C	0.626328	0.7442	0.894515
266888351	O	0.73853	0.763668	0.000751925
266888351	C	0.736632	0.825615	0.895542
266888351	O	0.642158	0.719793	0.931183
266888351	C	0.726225	0.827089	0.0713249
266888351	C	0.734761	0.801621	0.921258
266888351	F	0.752327	0.661031	0.977765
266888351	O	0.658442	0.611585	0.0408978
266888351	O	0.645551	0.835894	0.85544
266888351	C	0.624195	0.768665	0.868145
266888351	H	0.686251	0.78487	0.927222
266888351	C	0.694401	0.702341	0.995246
266888351	C	0.614147	0.754343	0.880199
266888351	C	0.701094	0.646509	0.0884493
266888351	O	0.710692	0.801255	0.965688
266888351	H	0.734204	0.609434	0.968907
266888351	O	0.732083	0.690938	0.0316106
266888351	C	0.711434	0.706646	0.00692923
266888351	O	0.631864	0.664379	0.958117
266888351	C	0.717072	0.82426	0.035194
266888351	C	0.733381	0.805349	0.901356
266888351	F	0.717519	0.642839	0.884608
266888351	O	0.747831	0.65837	0.906738
266888351	H	0.625185	0.685323	0.0125093
266888351	O	0.727251	0.605528	0.886323
266888351	F	0.650735	0.809464	0.0760431
266888351	H	0.74668	0.808412	0.929511
266888351	C	0.676258	0.607352	0.963497
266888351	O	0.708424	0.776312	0.998936
266888351	H	0.739104	0.817093	0.0698214
266888351	C	0.712554	0.829859	0.0556642
266888351	O	0.660391	0.729298	0.96479
266888351	H	0.730162	0.728757	0.0193378
266888351	O	0.604345	0.743005	0.983319
266888351	C	0.718128	0.608254	0.966639
266888351	C	0.601745	0.603468	0.943224
266888351	O	0.61344	0.691294	0.927753
266888351	O	0.752927	0.647991	0.0736808
266888351	F	0.653629	0.682254	0.925724
266888351	C	0.613062	0.659259	0.957675
266888351	H	0.681232	0.608101	0.932472
266888351	H	0.602842	0.700983	0.930497
266888351	C	0.661879	0.840796	0.847254
266888351	C	0.705757	0.611542	0.982744
266888351	H	0.616602	0.692199	0.913525
266888351	O	0.739628	0.806224	0.998046
266888351	O	0.680097	0.807303	0.99615
266888351	Fe	0.751452	0.828603	0.0108221
266888351	O	0.622991	0.707583	0.967103
266888351	H	0.676358	0.794372	0.000109183
266888351	H	0.689846	0.687587	0.99108
266888351	Fe	0.739958	0.631376	0.896333
266888351	O	0.636379	0.77986	0.877477
266888351	H	0.641902	0.744918	0.893396
266888351	C	0.722954	0.607729	0.930016
266888351	C	0.709981	0.605863	0.947638
266888351	H	0.73793	0.657659	0.917838
266888351	H	0.690855	0.749284	0.975222
266888351	H	0.627699	0.771141	0.979263
266888351	C	0.718245	0.792818	0.931527
266888351	H	0.673205	0.661265	0.0832041
266888351	O	0.70993	0.808807	0.0266525
266888351	H	0.649341	0.768106	0.971381
266888351	O	0.663272	0.696892	0.963983
266888351	C	0.718928	0.795277	0.890399
266888351	O	0.751873	0.834953	0.900812
266888351	O	0.63958	0.638834	0.0368403
266888351	O	0.715033	0.629851	0.0610447
266888351	Fe	0.637954	0.693535	0.945847
266888351	O	0.725756	0.625392	0.923151
266888351	C	0.615353	0.660375	0.855531
266888351	H	0.642602	0.827275	0.903003
266888351	O	0.738356	0.783574	0.960496
266888351	C	0.605454	0.640367	0.947218
266888351	Fe	0.746516	0.655162	0.00481619
266888351	Fe	0.755919	0.785403	0.988278
266888351	H	0.625466	0.811837	0.904909
266888351	O	0.639895	0.763112	0.982074
266888351	H	0.683775	0.842739	0.0481084
266888351	H	0.46091	0.614286	0.890989
266888351	O	0.428284	0.831249	0.887261
266888351	H	0.439931	0.606858	0.922996
266888351	O	0.642735	0.716751	0.0940067
266888351	H	0.497352	0.680966	0.0935967
266888351	C	0.682777	0.655854	0.0943407
266888351	F	0.565886	0.844383	0.0648149
266888351	C	0.761197	0.77886	0.855854
266888351	O	0.52592	0.844056	0.976102
266888351	O	0.742048	0.843717	0.986906
266888351	O	0.496146	0.892334	0.214208
266888351	O	0.464901	0.895541	0.20239
266888351	C	0.484048	0.893334	0.199721
266888351	Fe	0.449957	0.875581	0.220145
266888351	Fe	0.493632	0.881811	0.242789
266888351	O	0.46543	0.881969	0.243128
266888351	O	0.44057	0.912763	0.254689
266888351	O	0.52429	0.880039	0.243036
266888351	O	0.494062	0.909785	0.254691
266888351	H	0.529103	0.871886	0.231499
266888351	C	0.527196	0.909949	0.14128
266888351	O	0.58265	0.919384	0.132761
266888351	C	0.48334	0.871629	0.168849
266888351	C	0.506698	0.898539	0.169972
266888351	C	0.493714	0.863919	0.15259
266888351	C	0.514434	0.894185	0.151015
266888351	C	0.507869	0.876778	0.141905
266888351	C	0.491397	0.888459	0.178859
266888351	H	0.514325	0.90935	0.178781
266888351	H	0.511121	0.873084	0.125999
266888351	C	0.582165	0.880322	0.23629
266888351	H	0.576662	0.895017	0.232164
266888351	O	0.493439	0.97784	0.261998
266888351	O	0.511849	0.0331253	0.25337
266888351	O	0.472784	0.0396799	0.264627
266888351	O	0.481424	0.00497368	0.243571
266888351	O	0.453599	0.987647	0.250357
266888351	C	0.465027	0.996047	0.238092
266888351	H	0.460836	0.947603	0.251166
266888351	H	0.512422	0.0455007	0.260369
266888351	H	0.507574	0.0347592	0.239445
266888351	O	0.462883	0.980043	0.114629
266888351	C	0.518706	0.983865	0.134153
266888351	O	0.516986	0.967749	0.142951
266888351	O	0.524446	0.92767	0.147623
266888351	Fe	0.542907	0.951985	0.148426
266888351	O	0.535113	0.95467	0.17827
266888351	O	0.560187	0.978059	0.149367
266888351	H	0.556396	0.987328	0.138339
266888351	O	0.567084	0.934626	0.15735
266888351	C	0.582921	0.931411	0.147164
266888351	H	0.534087	0.941147	0.182881
266888351	H	0.52061	0.95848	0.178374
266888351	H	0.552896	0.943593	0.273497
266888351	O	0.572028	0.962347	0.196608
266888351	O	0.583277	0.994594	0.196773
266888351	Fe	0.581355	0.953375	0.223022
266888351	O	0.582851	0.996847	0.240396
266888351	O	0.556169	0.934598	0.228324
266888351	O	0.561127	0.976024	0.229365
266888351	C	0.565309	0.993542	0.233976
266888351	H	0.555575	0.924886	0.217654
266888351	H	0.54257	0.942589	0.228784
266888351	O	0.535324	0.0599409	0.165018
266888351	O	0.504477	0.0668565	0.173463
266888351	C	0.517233	0.0551602	0.165202
266888351	O	0.521299	0.0678455	0.213073
266888351	Fe	0.552452	0.0822184	0.177046
266888351	O	0.576754	0.0670823	0.165645
266888351	O	0.55364	0.0664712	0.203263
266888351	C	0.539177	0.0608648	0.214691
266888351	F	0.481421	0.0784609	0.204696
266888351	O	0.443552	0.0215668	0.164553
266888351	O	0.45557	0.0165647	0.134937
266888351	C	0.458439	0.0177745	0.15284
266888351	C	0.549563	0.0148426	0.256994
266888351	C	0.546763	0.0248314	0.222945
266888351	C	0.554378	0.0344195	0.261812
266888351	C	0.543933	0.0448215	0.229069
266888351	C	0.55153	0.0498444	0.248087
266888351	C	0.550813	0.00979573	0.237437
266888351	H	0.547692	0.0207923	0.207463
266888351	H	0.553846	0.0651702	0.251066
266888351	C	0.444249	0.0579966	0.258632
266888351	C	0.449972	0.0775794	0.251444
266888351	C	0.48797	0.0329431	0.163926
266888351	C	0.519503	0.0200101	0.148235
266888351	C	0.478378	0.0158663	0.159386
266888351	C	0.509486	0.00165776	0.144406
266888351	C	0.489576	0.999907	0.151614
266888351	C	0.509009	0.0355351	0.15891
266888351	H	0.53483	0.0216039	0.144293
266888351	H	0.479604	0.0448229	0.172086
266888351	C	0.474187	0.971925	0.213892
266888351	C	0.456137	0.96264	0.183738
266888351	C	0.462554	0.988286	0.217709
266888351	C	0.443558	0.978658	0.186675
266888351	C	0.446806	0.991983	0.203293
266888351	C	0.470861	0.958774	0.197872
266888351	H	0.454533	0.952527	0.171322
266888351	H	0.485231	0.966975	0.224762
266888351	H	0.506088	0.945259	0.256249
266888351	H	0.555976	0.986007	0.160684
266888351	O	0.483473	0.931452	0.17994
266888351	C	0.484089	0.940742	0.196106
266888351	O	0.497506	0.935661	0.210759
266888351	H	0.506799	0.926001	0.204516
266888351	O	0.493415	0.869165	0.271666
266888351	Fe	0.451504	0.886604	0.267667
266888351	O	0.474817	0.903404	0.281579
266888351	C	0.488383	0.913286	0.27238
266888351	O	0.576012	0.893715	0.310235
266888351	Fe	0.565725	0.911108	0.289134
266888351	O	0.536173	0.887348	0.327265
266888351	O	0.55326	0.887256	0.272955
266888351	H	0.556772	0.876684	0.282609
266888351	C	0.504661	0.928295	0.303197
266888351	C	0.499509	0.929471	0.282962
266888351	H	0.499564	0.914387	0.310202
266888351	H	0.538803	0.888293	0.273658
266888351	Fe	0.457241	0.0157039	0.306388
266888351	O	0.480834	0.028529	0.322047
266888351	C	0.497317	0.0365687	0.314771
266888351	O	0.502304	0.0330435	0.296792
266888351	O	0.512183	0.997256	0.278765
266888351	C	0.508819	0.979863	0.272759
266888351	Fe	0.46662	0.976871	0.275538
266888351	O	0.47244	0.00340672	0.286133
266888351	Fe	0.491338	0.0176756	0.270983
266888351	O	0.450489	0.0404951	0.289514
266888351	C	0.456592	0.0458066	0.272536
266888351	O	0.462578	0.948035	0.266247
266888351	O	0.479947	0.963444	0.301182
266888351	H	0.466888	0.959503	0.306999
266888351	H	0.450155	0.942526	0.272332
266888351	C	0.538397	0.926554	0.315213
266888351	O	0.540825	0.913376	0.302471
266888351	O	0.555605	0.930183	0.26749
266888351	H	0.542532	0.924975	0.262857
266888351	O	0.570192	0.0533544	0.286208
266888351	C	0.568314	0.0363903	0.278725
266888351	O	0.579366	0.0070996	0.323667
266888351	O	0.576611	0.0750032	0.317542
266888351	C	0.566716	0.0645167	0.330451
266888351	H	0.550822	0.00359437	0.268581
266888351	C	0.531615	0.0538682	0.321603
266888351	H	0.537941	0.0462419	0.308369
266888351	C	0.509529	0.943213	0.271197
266888351	C	0.517692	0.960427	0.280485
266888351	C	0.520488	0.940189	0.311069
266888351	C	0.524504	0.957859	0.300703
266888351	H	0.53257	0.969791	0.308472
266888351	H	0.574945	0.970401	0.321201
266888351	C	0.449593	0.0620312	0.328788
266888351	C	0.464153	0.0729506	0.318263
266888351	H	0.486099	0.973135	0.309461
266888351	O	0.439736	0.973577	0.289512
266888351	H	0.481983	0.985913	0.148691
266888351	Fe	0.439221	0.996252	0.122668
266888351	O	0.579346	0.0218879	0.28299
266888351	O	0.539445	0.905823	0.127287
266888351	C	0.587747	0.968566	0.331425
266888351	O	0.551693	0.927373	0.329588
266888351	O	0.580359	0.934382	0.304866
266888351	H	0.588066	0.075168	0.171091
266888351	C	0.580651	0.977146	0.188047
266888351	C	0.460744	0.0819324	0.300223
266888351	O	0.461048	0.989877	0.323799
266888351	O	0.55229	0.949019	0.120513
266888351	C	0.476988	0.0845562	0.331239
266888351	C	0.512642	0.0473053	0.328678
266888351	F	0.439787	0.0233964	0.324744
266888351	O	0.528918	0.985539	0.118088
266888351	H	0.472043	0.862193	0.174684
266888351	O	0.559138	0.886983	0.201321
266888351	Fe	0.563583	0.898607	0.33744
266888351	H	0.549765	0.885505	0.189619
266888351	O	0.462938	0.861615	0.281057
266888351	O	0.438407	0.979764	0.150753
266888351	C	0.5444	0.065654	0.333109
266888351	C	0.565029	0.86873	0.206207
266888351	C	0.57709	0.865136	0.223789
266888351	C	0.441194	0.0858667	0.296699
266888351	Fe	0.561988	0.923421	0.111489
266888351	O	0.571054	0.985706	0.109555
266888351	O	0.468359	0.85564	0.209622
266888351	H	0.541194	0.87521	0.321051
266888351	H	0.478136	0.85875	0.324835
266888351	H	0.528558	0.893979	0.23968
266888351	O	0.493077	0.85421	0.23182
266888351	C	0.481645	0.860275	0.283328
266888351	H	0.577123	0.0697531	0.151575
266888351	O	0.437875	0.853039	0.234844
266888351	H	0.473427	0.992726	0.331242
266888351	O	0.436762	0.894446	0.293883
266888351	O	0.43335	0.00482866	0.290303
266888351	H	0.462402	0.0851826	0.257286
266888351	H	0.437397	0.00504529	0.205738
266888351	C	0.438856	0.0860116	0.235811
266888351	O	0.559062	0.853722	0.195309
266888351	C	0.43092	0.982392	0.168031
266888351	Fe	0.505571	0.0882752	0.194819
266888351	Fe	0.548144	0.969141	0.0996947
266888351	C	0.432971	0.912563	0.237981
266888351	F	0.433327	0.869931	0.19859
266888351	O	0.589527	0.948919	0.251732
266888351	O	0.587537	0.908627	0.269239
266888351	H	0.443797	0.905439	0.30091
266888351	O	0.646908	0.847474	0.118475
266888351	H	0.471753	0.0911736	0.291791
266888351	O	0.575644	0.89694	0.10164
266888351	H	0.456491	0.967717	0.120238
266888351	H	0.744882	0.082703	0.0987486
266888351	C	0.586016	0.00371527	0.340992
266888351	H	0.46317	0.979384	0.0999169
266888351	H	0.612206	0.847901	0.181967
266888351	O	0.64767	0.845657	0.273972
266888351	H	0.537791	0.845226	0.113689
266888351	H	0.592757	0.0323272	0.235348
266888351	H	0.588753	0.962091	0.257943
266888351	C	0.491407	0.846472	0.297714
266888351	O	0.429628	0.896456	0.2296
266888351	H	0.44703	0.85046	0.104884
266888351	C	0.592314	0.971708	0.170438
266888351	C	0.430058	0.0632433	0.323446
266888351	C	0.428633	0.987444	0.294588
266888351	H	0.573471	0.886302	0.112493
266888351	C	0.483857	0.848324	0.216506
266888351	O	0.591163	0.0889612	0.279001
266888351	Fe	0.718285	0.946033	0.231301
266888351	O	0.585725	0.938717	0.0987939
266888351	H	0.568881	0.0458577	0.109444
266888351	H	0.569443	0.859375	0.336122
266888351	H	0.453281	0.0539998	0.341759
266888351	C	0.594555	0.877312	0.2534
266888351	H	0.430241	0.914871	0.20125
266888351	H	0.594707	0.943193	0.181834
266888351	C	0.488411	0.846875	0.31845
266888351	H	0.661733	0.0730194	0.302088
266888351	O	0.444452	0.013267	0.097153
266888351	Fe	0.756324	0.0392011	0.338444
266888351	H	0.626962	0.939285	0.342834
266888351	Fe	0.605867	0.0458164	0.341979
266888351	C	0.683801	0.0934648	0.315362
266888351	H	0.590352	0.900772	0.102497
266888351	H	0.589141	0.861245	0.294216
266888351	O	0.433068	0.846422	0.101485
266888351	F	0.686942	0.9582	0.341571
266888351	H	0.593699	5.08379e-06	0.155854
266888351	C	0.703078	0.0850772	0.306459
266888351	H	0.582685	0.0828089	0.268482
266888351	O	0.575839	0.0532028	0.342797
266888351	C	0.632419	0.0446981	0.11818
266888351	O	0.728718	0.0476365	0.0955345
266888351	C	0.759134	0.855228	0.32886
266888351	O	0.635254	0.884524	0.313766
266888351	Fe	0.72249	0.978246	0.133816
266888351	C	0.742915	0.0903929	0.188349
266888351	C	0.647297	0.0911401	0.323645
266888351	H	0.753016	0.981676	0.322735
266888351	Fe	0.694057	0.989732	0.096561
266888351	H	0.719906	0.0117518	0.240941
266888351	H	0.615164	0.0278248	0.156604
266888351	H	0.654926	0.856207	0.266943
266888351	C	0.623973	0.0359876	0.273407
266888351	C	0.677297	0.094087	0.155009
266888351	C	0.724527	0.877863	0.230798
266888351	H	0.678927	0.0328513	0.216775
266888351	H	0.636652	0.908685	0.107567
266888351	C	0.743546	0.991318	0.294204
266888351	H	0.570415	0.997413	0.101188
266888351	Fe	0.64858	0.875608	0.113766
266888351	O	0.654199	0.0692583	0.202298
266888351	O	0.617558	0.0750595	0.337577
266888351	H	0.704264	0.966904	0.203199
266888351	C	0.640743	0.0321257	0.136287
266888351	C	0.67279	0.0249568	0.247683
266888351	H	0.655303	0.911916	0.121912
266888351	H	0.585054	0.030727	0.215123
266888351	H	0.731804	0.910493	0.133007
266888351	C	0.616677	0.951207	0.343534
266888351	H	0.673071	0.969934	0.228552
266888351	O	0.601485	0.0410689	0.313328
266888351	C	0.746244	0.886114	0.280765
266888351	Fe	0.595853	0.064049	0.296556
266888351	C	0.746092	0.930643	0.20197
266888351	C	0.729959	0.0887326	0.139828
266888351	O	0.623952	0.999945	0.241867
266888351	C	0.708229	0.875041	0.159151
266888351	O	0.645563	0.0504677	0.105219
266888351	O	0.63243	0.987031	0.11726
266888351	O	0.599472	0.85911	0.3048
266888351	O	0.727967	0.0258927	0.296126
266888351	O	0.687821	0.883628	0.278113
266888351	O	0.612177	0.0505233	0.273052
266888351	C	0.744744	0.986037	0.273119
266888351	C	0.694223	0.0875633	0.142667
266888351	O	0.601022	0.880924	0.338891
266888351	H	0.743424	0.997381	0.261935
266888351	C	0.722531	0.858136	0.221582
266888351	O	0.755058	0.878802	0.13385
266888351	C	0.681036	0.933703	0.242512
266888351	O	0.619947	0.853401	0.148218
266888351	C	0.668648	0.0342959	0.229247
266888351	H	0.712728	0.91969	0.296397
266888351	H	0.707902	0.0762553	0.220435
266888351	O	0.69202	0.93839	0.127832
266888351	C	0.622329	0.884181	0.212689
266888351	H	0.667008	0.992251	0.169685
266888351	C	0.670576	0.0129589	0.146324
266888351	H	0.640208	0.933426	0.23303
266888351	H	0.635627	0.988769	0.276852
266888351	O	0.694916	0.061003	0.336369
266888351	H	0.702751	0.054831	0.215656
266888351	H	0.668028	0.0307086	0.121387
266888351	C	0.653298	0.0662777	0.22084
266888351	H	0.644819	0.970067	0.326483
266888351	O	0.668202	0.976429	0.102827
266888351	O	0.63126	0.978919	0.182581
266888351	C	0.745181	0.876134	0.14992
266888351	H	0.635169	0.00729289	0.316054
266888351	C	0.599067	0.893837	0.267894
266888351	H	0.697943	0.852548	0.241962
266888351	C	0.750289	0.0705529	0.189756
266888351	O	0.708406	0.960957	0.257686
266888351	C	0.734569	0.851721	0.204989
266888351	H	0.693434	0.870399	0.276727
266888351	C	0.705491	0.915592	0.150269
266888351	C	0.742467	0.951261	0.284009
266888351	C	0.674094	0.874063	0.148151
266888351	C	0.667563	0.967431	0.24464
266888351	Fe	0.60418	0.888156	0.310745
266888351	C	0.747349	0.976256	0.308545
266888351	O	0.696419	0.00759186	0.26805
266888351	C	0.7411	0.0132651	0.302252
266888351	C	0.596686	0.984279	0.154678
266888351	H	0.62638	0.88849	0.228132
266888351	C	0.702722	0.936491	0.14302
266888351	H	0.610734	0.949408	0.120727
266888351	C	0.658435	0.0268717	0.2627
266888351	H	0.742015	0.882658	0.322456
266888351	O	0.690374	0.936146	0.226531
266888351	O	0.622143	0.0209408	0.284037
266888351	O	0.714976	0.95041	0.148074
266888351	O	0.663184	0.860949	0.156202
266888351	C	0.689738	0.904696	0.160095
266888351	H	0.674415	0.885565	0.272511
266888351	C	0.606438	0.956454	0.134963
266888351	O	0.66934	0.0815221	0.16586
266888351	O	0.638236	0.970867	0.314168
266888351	C	0.747943	0.965269	0.269626
266888351	C	0.640398	0.990964	0.238502
266888351	H	0.741219	0.000872553	0.158005
266888351	O	0.756717	0.923961	0.215471
266888351	C	0.627546	0.0802971	0.322249
266888351	O	0.597482	0.926431	0.216444
266888351	O	0.696331	0.0676994	0.218619
266888351	C	0.639258	0.0353051	0.258777
266888351	O	0.653408	0.939974	0.31293
266888351	C	0.621375	0.871537	0.151854
266888351	O	0.726397	0.922347	0.247396
266888351	Fe	0.682551	0.0754994	0.192288
266888351	O	0.732781	0.00327576	0.119984
266888351	O	0.597442	0.0296682	0.221975
266888351	O	0.738461	0.986349	0.158326
266888351	O	0.717046	0.022999	0.335901
266888351	C	0.635756	0.0448801	0.241023
266888351	C	0.730474	0.0696077	0.132008
266888351	H	0.622742	0.0538409	0.239196
266888351	F	0.683156	0.0499574	0.181947
266888351	C	0.616419	0.862148	0.186527
266888351	C	0.747665	0.956103	0.3028
266888351	C	0.652297	0.981016	0.25284
266888351	O	0.623715	0.935154	0.19805
266888351	O	0.736504	0.0570318	0.328035
266888351	O	0.727656	0.933059	0.204153
266888351	O	0.711008	0.0801176	0.183103
266888351	C	0.623877	0.864761	0.205968
266888351	O	0.607912	0.91861	0.31824
266888351	H	0.638387	0.999095	0.112296
266888351	H	0.724346	0.97681	0.209672
266888351	O	0.651143	0.905602	0.108848
266888351	F	0.658814	0.953198	0.20151
266888351	F	0.689475	0.0320016	0.306693
266888351	C	0.755924	0.870636	0.295199
266888351	C	0.598898	0.952786	0.168904
266888351	H	0.744118	0.0629475	0.128401
266888351	H	0.690536	0.920618	0.293425
266888351	C	0.74828	0.950581	0.127793
266888351	O	0.635309	0.947033	0.235601
266888351	O	0.61318	0.0462619	0.114979
266888351	C	0.612688	0.921897	0.205916
266888351	O	0.611791	0.891742	0.281213
266888351	C	0.596461	0.934073	0.316899
266888351	Fe	0.632844	0.961912	0.208726
266888351	O	0.68107	0.916012	0.249083
266888351	Fe	0.603213	0.999043	0.219469
266888351	O	0.709658	0.884028	0.240367
266888351	O	0.672448	0.878544	0.130228
266888351	O	0.746657	0.968038	0.121793
266888351	C	0.751329	0.869995	0.316388
266888351	O	0.752883	0.86736	0.165654
266888351	O	0.696359	0.0401536	0.104635
266888351	H	0.680807	0.0617372	0.129621
266888351	C	0.662835	0.944585	0.271801
266888351	H	0.709313	0.975312	0.254537
266888351	C	0.600533	0.952186	0.33012
266888351	O	0.604303	0.00645197	0.118477
266888351	C	0.639684	0.00836681	0.165195
266888351	Fe	0.753822	0.91231	0.24321
266888351	C	0.68859	0.0026441	0.137822
266888351	H	0.611912	0.855346	0.298653
266888351	C	0.694876	0.069459	0.133553
266888351	C	0.712792	0.062438	0.125354
266888351	O	0.622418	0.0750392	0.30516
266888351	C	0.605672	0.976775	0.137685
266888351	H	0.729146	0.983152	0.169341
266888351	O	0.706284	0.014283	0.235639
266888351	O	0.752802	0.85055	0.102573
266888351	H	0.674654	0.910312	0.16242
266888351	H	0.637675	0.869954	0.311279
266888351	C	0.652057	0.0466569	0.228315
266888351	F	0.596666	0.987853	0.292771
266888351	C	0.600096	0.943784	0.150675
266888351	Fe	0.706735	0.944191	0.102855
266888351	O	0.704512	0.0681796	0.297321
266888351	C	0.721728	0.904492	0.143564
266888351	O	0.751023	0.0172398	0.3175
266888351	O	0.741428	0.886625	0.229779
266888351	H	0.660537	0.0192534	0.277207
266888351	H	0.664759	0.930058	0.278514
266888351	O	0.606673	0.970127	0.217397
266888351	O	0.745321	0.958832	0.235683
266888351	H	0.641385	0.890934	0.301979
266888351	C	0.757168	0.940322	0.184127
266888351	C	0.647643	0.956031	0.304374
266888351	C	0.629738	0.997629	0.181071
266888351	C	0.613467	0.990528	0.123226
266888351	H	0.710084	0.859189	0.160918
266888351	O	0.727752	0.886949	0.279324
266888351	O	0.631102	0.883651	0.140127
266888351	C	0.712008	0.0490608	0.108334
266888351	H	0.713318	0.866666	0.0991207
266888351	O	0.710616	0.973042	0.215119
266888351	C	0.75353	0.936514	0.163829
266888351	H	0.741138	0.935642	0.280952
266888351	C	0.629747	0.0231486	0.152538
266888351	C	0.61626	0.900438	0.199983
266888351	C	0.615772	0.896017	0.179368
266888351	Fe	0.712	0.0446752	0.316184
266888351	C	0.693123	0.0152967	0.250844
266888351	C	0.651241	0.959187	0.282123
266888351	C	0.602326	0.858543	0.255521
266888351	O	0.735658	0.938246	0.120327
266888351	C	0.754588	0.955356	0.251346
266888351	C	0.725356	0.885589	0.152172
266888351	O	0.70696	0.971062	0.111309
266888351	H	0.745756	0.861882	0.199838
266888351	Fe	0.599858	0.0144663	0.302984
266888351	C	0.659849	0.00366612	0.161422
266888351	O	0.622452	0.00464414	0.321521
266888351	C	0.664326	0.0846417	0.312416
266888351	C	0.645289	0.976842	0.27184
266888351	Fe	0.745175	0.0854894	0.328045
266888351	Fe	0.70694	0.903282	0.262584
266888351	H	0.614556	0.857386	0.266155
266888351	C	0.616185	0.877238	0.172971
266888351	H	0.622775	0.944298	0.242319
266888351	O	0.660219	0.0795845	0.233037
266888351	C	0.734921	0.0023122	0.101198
266888351	O	0.703027	0.922524	0.286125
266888351	H	0.741941	0.059726	0.180384
266888351	C	0.689826	0.883898	0.159471
266888351	C	0.660245	0.0261168	0.133933
266888351	O	0.698289	0.989618	0.147517
266888351	H	0.615626	0.906899	0.167082
266888351	O	0.622579	0.00747457	0.196019
266888351	C	0.671183	0.949347	0.253666
266888351	H	0.744687	0.924754	0.159843
266888351	O	0.692909	0.00720918	0.12053
266888351	O	0.75699	0.89706	0.270012
266888351	O	0.643483	0.987486	0.220815
266888351	O	0.635603	0.0364361	0.340448
266888351	C	0.629835	0.845162	0.216383
266888351	O	0.585096	0.0750881	0.0975833
266888351	H	0.640233	0.0404114	0.327403
266888351	H	0.541055	0.851626	0.135947
266888351	O	0.573832	0.0363375	0.100252
266888351	C	0.759218	0.949825	0.147964
266888351	O	0.719744	0.094265	0.310279
266888351	H	0.605482	0.0923144	0.27413
266888351	C	0.582984	0.845846	0.228305
266888351	C	0.707644	0.846106	0.229938
266888351	H	0.759193	0.0644082	0.0997522
266888351	O	0.624166	0.873934	0.0953843
266888351	O	0.51923	0.891461	0.408431
266888351	Fe	0.506599	0.872957	0.387048
266888351	O	0.484334	0.879546	0.429569
266888351	O	0.478555	0.878488	0.397295
266888351	C	0.477699	0.888148	0.414219
266888351	C	0.459403	0.917604	0.402515
266888351	C	0.473231	0.909246	0.415645
266888351	H	0.452142	0.906768	0.391975
266888351	C	0.516602	0.0215065	0.581686
266888351	H	0.511958	0.904159	0.407258
266888351	O	0.452606	0.0644536	0.379096
266888351	O	0.493783	0.0785574	0.382499
266888351	C	0.51108	0.082721	0.374867
266888351	H	0.449953	0.0628355	0.393299
266888351	H	0.461769	0.0535252	0.376674
266888351	H	0.521674	0.989576	0.422967
266888351	C	0.45132	0.936647	0.406372
266888351	C	0.459557	0.949187	0.420455
266888351	H	0.455046	0.964371	0.423436
266888351	C	0.519423	0.0684921	0.358711
266888351	O	0.456985	0.89224	0.575242
266888351	C	0.474116	0.886081	0.579722
266888351	Fe	0.451209	0.920194	0.567642
266888351	O	0.481561	0.918965	0.553855
266888351	C	0.497956	0.92386	0.562302
266888351	O	0.544378	0.865912	0.525498
266888351	O	0.494686	0.924856	0.499891
266888351	H	0.487896	0.924517	0.512632
266888351	H	0.485369	0.919227	0.489338
266888351	C	0.581291	0.888392	0.505592
266888351	C	0.557921	0.870104	0.486566
266888351	C	0.563679	0.888007	0.494621
266888351	H	0.545524	0.869321	0.476614
266888351	H	0.584099	0.901632	0.513628
266888351	C	0.532446	0.923142	0.573319
266888351	C	0.534019	0.881684	0.570242
266888351	C	0.517679	0.91287	0.562162
266888351	C	0.51888	0.89219	0.559788
266888351	C	0.523024	0.999885	0.581454
266888351	H	0.508836	0.884381	0.550908
266888351	C	0.482359	0.922333	0.429422
266888351	H	0.494116	0.916737	0.438876
266888351	C	0.479996	0.865711	0.575961
266888351	H	0.53205	0.874969	0.523462
266888351	O	0.551446	0.919437	0.504167
266888351	C	0.549864	0.903868	0.493083
266888351	O	0.533934	0.901693	0.478891
266888351	H	0.52559	0.914306	0.480268
266888351	O	0.498239	0.936081	0.575778
266888351	C	0.489042	0.0665175	0.536255
266888351	O	0.479123	0.0520771	0.54411
266888351	O	0.505635	0.0283535	0.568274
266888351	Fe	0.477964	0.0398879	0.573104
266888351	O	0.465667	0.0142609	0.560547
266888351	O	0.449312	0.0522805	0.577852
266888351	H	0.458781	0.019427	0.548148
266888351	H	0.453953	0.0116108	0.568994
266888351	Fe	0.583719	0.0348132	0.528687
266888351	O	0.580265	0.0136219	0.505608
266888351	O	0.578112	0.0557235	0.508098
266888351	F	0.556321	0.0326094	0.533842
266888351	O	0.531558	0.00956858	0.468499
266888351	O	0.521435	0.0209744	0.497343
266888351	C	0.532018	0.0229399	0.481663
266888351	Fe	0.499652	0.000404637	0.507379
266888351	O	0.476225	0.983878	0.519301
266888351	C	0.463798	0.975067	0.50821
266888351	O	0.469559	0.961805	0.496192
266888351	O	0.484829	0.974282	0.447543
266888351	O	0.492975	0.946201	0.462698
266888351	C	0.484789	0.955475	0.448478
266888351	O	0.478681	0.0134536	0.492061
266888351	Fe	0.508543	0.992744	0.459098
266888351	O	0.50299	0.983022	0.486338
266888351	Fe	0.499126	0.955337	0.492419
266888351	O	0.520921	0.987304	0.523651
266888351	O	0.503062	0.959778	0.523763
266888351	C	0.512578	0.973714	0.533436
266888351	O	0.528412	0.951911	0.486805
266888351	O	0.514278	0.000395629	0.430281
266888351	O	0.491528	0.0187515	0.462639
266888351	O	0.528921	0.968463	0.457391
266888351	C	0.484607	0.0259745	0.479225
266888351	C	0.537778	0.959334	0.472053
266888351	H	0.523807	0.0116396	0.430717
266888351	F	0.494897	0.0150041	0.530007
266888351	C	0.570904	0.945985	0.470618
266888351	C	0.558124	0.961689	0.475443
266888351	C	0.564098	0.97854	0.486084
266888351	H	0.552996	0.989251	0.492079
266888351	H	0.535099	0.939227	0.573296
266888351	C	0.563108	0.0421943	0.472157
266888351	C	0.543078	0.0430044	0.477075
266888351	C	0.534425	0.0621315	0.477266
266888351	C	0.575353	0.0592265	0.473231
266888351	H	0.570755	0.0285921	0.473183
266888351	H	0.518749	0.0628309	0.47881
266888351	C	0.475109	0.941981	0.432334
266888351	C	0.443659	0.983182	0.508942
266888351	C	0.440037	0.0035111	0.512536
266888351	H	0.451694	0.0125469	0.514918
266888351	C	0.471199	0.0622988	0.477208
266888351	C	0.483943	0.0472506	0.485157
266888351	C	0.489687	0.0679712	0.51485
266888351	C	0.494219	0.0511482	0.504232
266888351	C	0.468104	0.0803277	0.488716
266888351	H	0.500608	0.0399475	0.511373
266888351	H	0.461439	0.0580534	0.464688
266888351	H	0.564585	0.00508541	0.577298
266888351	C	0.496703	0.972028	0.567484
266888351	C	0.526796	0.991441	0.562936
266888351	C	0.512883	0.977375	0.55565
266888351	H	0.538032	0.997896	0.55283
266888351	H	0.485221	0.962683	0.559908
266888351	H	0.552565	0.893553	0.39523
266888351	O	0.461129	0.930102	0.592373
266888351	C	0.56519	0.883189	0.399574
266888351	O	0.571097	0.926176	0.403489
266888351	H	0.578106	0.93946	0.405492
266888351	F	0.551113	0.90255	0.361294
266888351	H	0.493196	0.0488297	0.354826
266888351	O	0.490013	0.0628084	0.583446
266888351	O	0.503372	0.896392	0.366712
266888351	H	0.567034	0.0682918	0.577112
266888351	O	0.526334	0.871063	0.44026
266888351	O	0.534029	0.867845	0.376238
266888351	O	0.442736	0.948033	0.559121
266888351	O	0.498223	0.0796834	0.546019
266888351	H	0.489439	0.894474	0.361219
266888351	O	0.459836	0.0819786	0.560501
266888351	H	0.5383	0.865048	0.445278
266888351	H	0.564982	0.932815	0.46358
266888351	C	0.479997	0.0833697	0.50564
266888351	C	0.566428	0.0832864	0.571773
266888351	C	0.545493	0.0797127	0.475626
266888351	C	0.565888	0.0778704	0.471056
266888351	Fe	0.486723	0.0895856	0.571442
266888351	O	0.587028	0.0139365	0.549353
266888351	O	0.587089	0.055806	0.549766
266888351	O	0.585429	0.971294	0.565661
266888351	H	0.459953	0.863603	0.551075
266888351	O	0.439925	0.909461	0.540177
266888351	C	0.582661	0.979309	0.493984
266888351	C	0.563384	0.862575	0.394195
266888351	C	0.539738	0.860682	0.566397
266888351	C	0.567824	0.851754	0.492093
266888351	H	0.504605	0.909667	0.373913
266888351	C	0.471125	0.855774	0.559773
266888351	C	0.587804	0.0589002	0.491959
266888351	C	0.587889	0.85368	0.499108
266888351	O	0.494843	0.85585	0.362436
266888351	C	0.580556	0.890607	0.410136
266888351	C	0.581212	0.912517	0.41469
266888351	H	0.523316	0.883208	0.448061
266888351	O	0.493652	0.85621	0.464425
266888351	Fe	0.500711	0.853008	0.435702
266888351	C	0.531155	0.0883641	0.581444
266888351	O	0.557467	0.855713	0.568968
266888351	C	0.574149	0.013276	0.587488
266888351	C	0.49759	0.976654	0.588406
266888351	C	0.545355	0.913069	0.586594
266888351	H	0.547016	0.0847539	0.358272
266888351	C	0.537415	0.0742605	0.350749
266888351	C	0.494044	0.857116	0.58723
266888351	H	0.573529	0.963389	0.560744
266888351	O	0.486102	0.897343	0.588742
266888351	C	0.546633	0.892419	0.584743
266888351	O	0.435434	0.0852428	0.477462
266888351	C	0.580762	0.0887136	0.557219
266888351	O	0.590393	0.907669	0.351873
266888351	C	0.545771	0.85538	0.383131
266888351	H	0.439819	0.0424	0.58204
266888351	O	0.508762	0.850275	0.405733
266888351	O	0.476981	0.0788104	0.348701
266888351	C	0.589252	0.99655	0.506443
266888351	O	0.505136	0.848562	0.523012
266888351	H	0.457432	0.0925967	0.550115
266888351	C	0.589902	0.946317	0.479777
266888351	C	0.592718	0.0209212	0.581565
266888351	O	0.592986	0.852286	0.547613
266888351	O	0.614498	0.845081	0.382201
266888351	O	0.527684	0.848248	0.558503
266888351	H	0.450752	0.899592	0.536966
266888351	O	0.568988	0.93829	0.589768
266888351	O	0.531255	0.070921	0.587766
266888351	H	0.597658	0.967256	0.559195
266888351	C	0.448109	0.0894852	0.490074
266888351	H	0.650953	0.0860644	0.506367
266888351	H	0.59331	0.856588	0.45453
266888351	C	0.613772	0.847862	0.40072
266888351	O	0.428498	0.0461077	0.49868
266888351	C	0.591636	0.0732379	0.545617
266888351	H	0.749677	0.960976	0.347764
266888351	H	0.505072	0.854398	0.50986
266888351	C	0.429491	0.938487	0.402163
266888351	O	0.597415	0.0169174	0.34947
266888351	Fe	0.467955	0.0906472	0.373336
266888351	O	0.669155	0.846976	0.503093
266888351	F	0.75929	0.932063	0.517845
266888351	H	0.730619	0.0787253	0.360223
266888351	C	0.683756	0.893282	0.468581
266888351	H	0.496925	0.87097	0.467515
266888351	O	0.641316	0.0929498	0.427416
266888351	H	0.595236	0.0543018	0.378294
266888351	O	0.611233	0.0359575	0.524564
266888351	H	0.478932	0.856198	0.464194
266888351	O	0.569044	0.868786	0.34724
266888351	C	0.578483	0.850407	0.399293
266888351	H	0.725117	0.872386	0.580109
266888351	H	0.451196	0.0618317	0.58909
266888351	H	0.589472	0.865658	0.551634
266888351	C	0.594896	0.871863	0.505813
266888351	O	0.699907	0.0891905	0.39962
266888351	C	0.701372	0.898459	0.543659
266888351	H	0.62963	0.959635	0.432028
266888351	H	0.714472	0.873444	0.450294
266888351	H	0.428789	0.900185	0.542212
266888351	C	0.431126	0.960228	0.568633
266888351	O	0.724652	0.84533	0.422335
266888351	O	0.665344	0.094008	0.450318
266888351	H	0.69002	0.930019	0.458959
266888351	C	0.701333	0.921674	0.453228
266888351	H	0.432	0.956162	0.498342
266888351	H	0.698756	0.84841	0.388452
266888351	H	0.606357	0.849082	0.553294
266888351	C	0.73676	0.847275	0.492926
266888351	C	0.751981	0.933591	0.593174
266888351	O	0.653965	0.933281	0.470013
266888351	H	0.575593	0.0912188	0.471454
266888351	H	0.750671	0.855156	0.4657
266888351	C	0.507477	0.0534149	0.348258
266888351	H	0.703644	0.905153	0.528775
266888351	O	0.634422	0.947035	0.426564
266888351	O	0.756117	0.848104	0.524742
266888351	C	0.758959	0.856035	0.351136
266888351	O	0.613388	0.950351	0.590391
266888351	H	0.617882	0.0381346	0.592004
266888351	H	0.626896	0.0102045	0.458025
266888351	C	0.653164	0.974872	0.466797
266888351	Fe	0.757985	0.0910937	0.574841
266888351	Fe	0.640386	0.90683	0.464062
266888351	C	0.757282	0.969633	0.359188
266888351	H	0.661896	0.885087	0.572645
266888351	C	0.653048	0.0436955	0.545247
266888351	Fe	0.626869	0.0126067	0.527346
266888351	H	0.595757	0.000986329	0.420235
266888351	O	0.745866	0.976112	0.562539
266888351	O	0.74061	0.880081	0.401819
266888351	C	0.597337	0.877764	0.414461
266888351	C	0.70404	0.0595807	0.562581
266888351	O	0.679822	0.967755	0.396149
266888351	Fe	0.721264	0.960585	0.571856
266888351	C	0.663076	0.991549	0.459524
266888351	C	0.75463	0.851359	0.505287
266888351	C	0.650602	0.085107	0.441424
266888351	H	0.624664	0.862562	0.354914
266888351	H	0.642603	0.966818	0.458
266888351	O	0.608261	0.00358481	0.427753
266888351	O	0.704615	0.987541	0.567633
266888351	H	0.705878	0.859137	0.369988
266888351	C	0.624519	0.893849	0.359648
266888351	O	0.750306	0.0584193	0.542965
266888351	O	0.60264	0.078087	0.530983
266888351	O	0.681706	0.931508	0.37124
266888351	H	0.640502	0.899803	0.425953
266888351	C	0.65398	0.931918	0.589043
266888351	H	0.616894	0.0622129	0.374439
266888351	H	0.727885	0.91898	0.409949
266888351	C	0.717929	0.89115	0.554338
266888351	C	0.68261	0.993221	0.490706
266888351	H	0.65726	0.0460076	0.398264
266888351	O	0.607198	0.922238	0.498001
266888351	C	0.674418	0.974858	0.496325
266888351	O	0.618466	0.0114748	0.557207
266888351	C	0.705233	0.0492412	0.382118
266888351	O	0.754293	0.871716	0.431046
266888351	C	0.62908	0.0329585	0.436878
266888351	O	0.641941	0.0592247	0.542118
266888351	Fe	0.698048	0.984998	0.40881
266888351	H	0.653302	0.917303	0.430869
266888351	C	0.615729	0.874586	0.512403
266888351	C	0.63338	0.874921	0.358004
266888351	O	0.718353	0.0853337	0.54276
266888351	O	0.741738	0.89778	0.527294
266888351	H	0.743256	0.0139473	0.459705
266888351	O	0.694682	0.945045	0.574741
266888351	O	0.7192	0.95249	0.542239
266888351	O	0.738007	0.0272442	0.360357
266888351	H	0.751133	0.0355627	0.454572
266888351	Fe	0.623706	0.0603979	0.51701
266888351	H	0.63118	0.922968	0.371303
266888351	C	0.596381	0.858896	0.406084
266888351	H	0.709974	0.00383844	0.530579
266888351	C	0.594833	0.962786	0.491449
266888351	O	0.593244	0.918223	0.427786
266888351	C	0.692292	0.930073	0.585945
266888351	Fe	0.682906	0.961741	0.368777
266888351	C	0.678585	0.0264999	0.563653
266888351	C	0.600581	0.0140944	0.561839
266888351	O	0.636133	0.966548	0.390291
266888351	C	0.666163	0.895202	0.535117
266888351	O	0.608248	0.050911	0.372821
266888351	C	0.603961	0.894904	0.350809
266888351	C	0.756167	0.989871	0.570242
266888351	O	0.608448	0.0309497	0.407624
266888351	C	0.710804	0.0407912	0.56966
266888351	H	0.631471	0.0570371	0.415905
266888351	C	0.698333	0.024074	0.570252
266888351	O	0.67981	0.00672945	0.400133
266888351	H	0.64331	0.045714	0.349733
266888351	O	0.604373	0.994751	0.517168
266888351	H	0.719152	0.0562391	0.383634
266888351	O	0.643382	0.986304	0.530395
266888351	H	0.680103	0.0757377	0.554218
266888351	O	0.681284	0.946376	0.429155
266888351	C	0.604327	0.929404	0.481203
266888351	C	0.635793	0.908494	0.369328
266888351	O	0.711066	0.958941	0.417831
266888351	O	0.743303	0.857536	0.362199
266888351	C	0.654035	0.945059	0.485322
266888351	C	0.682209	0.895301	0.549803
266888351	C	0.694633	0.879908	0.580376
266888351	C	0.645105	0.0644793	0.445892
266888351	O	0.706477	0.860083	0.385057
266888351	C	0.697338	0.00309728	0.503871
266888351	O	0.654761	0.84986	0.388294
266888351	O	0.68563	0.98521	0.434961
266888351	C	0.685217	0.0301985	0.360433
266888351	O	0.645096	0.0446265	0.503561
266888351	C	0.702239	0.901775	0.459034
266888351	C	0.678355	0.887194	0.567926
266888351	Fe	0.657906	0.957873	0.410457
266888351	O	0.666013	0.084397	0.393077
266888351	H	0.713008	0.0152601	0.430093
266888351	H	0.604955	0.990579	0.37397
266888351	H	0.633919	0.976421	0.534406
266888351	C	0.614755	0.0224301	0.422821
266888351	H	0.748839	0.987107	0.405777
266888351	H	0.610573	0.88294	0.419898
266888351	O	0.646326	0.940634	0.501762
266888351	C	0.652898	0.871271	0.362641
266888351	Fe	0.632356	0.915446	0.512888
266888351	O	0.751079	0.0219558	0.44971
266888351	O	0.667664	0.893606	0.458013
266888351	C	0.670536	0.0442896	0.388763
266888351	O	0.663466	0.879629	0.525162
266888351	C	0.738521	0.890465	0.544562
266888351	C	0.632926	0.86361	0.462398
266888351	Fe	0.746268	0.0845073	0.527768
266888351	O	0.719603	0.0037788	0.423119
266888351	C	0.710352	0.928713	0.435873
266888351	C	0.700779	0.945781	0.426806
266888351	C	0.72755	0.896492	0.431483
266888351	O	0.678722	0.993104	0.368572
266888351	C	0.660444	0.965784	0.48359
266888351	Fe	0.65612	0.874206	0.497247
266888351	O	0.650386	0.0270783	0.536509
266888351	C	0.642334	0.0363581	0.46955
266888351	O	0.75129	0.880557	0.553302
266888351	C	0.741935	0.882274	0.420367
266888351	C	0.715714	0.889365	0.448311
266888351	H	0.659871	0.0643891	0.473376
266888351	C	0.746037	0.977016	0.375152
266888351	C	0.649693	0.0554651	0.464213
266888351	O	0.701297	0.995438	0.523128
266888351	C	0.636566	0.964957	0.371534
266888351	C	0.668061	0.988904	0.438438
266888351	O	0.614591	0.924089	0.466676
266888351	H	0.724242	0.994565	0.433147
266888351	H	0.653631	0.987523	0.541323
266888351	C	0.665207	0.886946	0.368306
266888351	C	0.684987	0.0615662	0.556688
266888351	H	0.704632	0.949545	0.540904
266888351	F	0.73447	0.0705415	0.506567
266888351	O	0.624592	0.880102	0.458145
266888351	C	0.635084	0.0524484	0.431506
266888351	C	0.671766	0.044881	0.556445
266888351	C	0.684619	0.0775474	0.395049
266888351	O	0.619263	0.890138	0.522699
266888351	C	0.633654	0.0249718	0.455059
266888351	C	0.670889	0.0281723	0.374818
266888351	H	0.625805	0.942433	0.415514
266888351	H	0.725201	0.0390092	0.576467
266888351	C	0.687272	0.0561477	0.39071
266888351	H	0.608306	0.961921	0.500641
266888351	C	0.70376	0.0346327	0.36678
266888351	C	0.674671	0.00744858	0.381831
266888351	O	0.740425	0.936913	0.577499
266888351	H	0.72464	0.938972	0.541368
266888351	O	0.755776	0.993332	0.590293
266888351	H	0.650149	0.942545	0.576977
266888351	O	0.653095	0.96112	0.362639
266888351	C	0.718414	0.0759662	0.559335
266888351	F	0.62253	0.930291	0.532412
266888351	O	0.654477	0.983409	0.426751
266888351	H	0.672036	0.854523	0.419543
266888351	C	0.756081	0.984095	0.392429
266888351	C	0.641244	0.0314551	0.49082
266888351	C	0.676185	0.00206788	0.472622
266888351	O	0.650146	0.862895	0.470212
266888351	O	0.714296	0.989254	0.38391
266888351	O	0.637225	0.087716	0.508599
266888351	O	0.657573	0.911762	0.531063
266888351	C	0.655896	0.852059	0.369424
266888351	C	0.70566	0.00426876	0.577557
266888351	O	0.63961	0.911901	0.43333
266888351	O	0.606739	0.0602358	0.491175
266888351	Fe	0.735677	0.851715	0.392721
266888351	O	0.62948	0.863363	0.504747
266888351	C	0.667271	0.923343	0.380758
266888351	C	0.713716	0.881023	0.572815
266888351	C	0.723538	0.915999	0.424982
266888351	C	0.719778	0.0263546	0.354746
266888351	H	0.679882	0.967571	0.510471
266888351	C	0.656407	0.905193	0.373233
266888351	O	0.683592	0.885717	0.486563
266888351	C	0.604115	0.980318	0.36156
266888351	H	0.681794	0.885783	0.370021
266888351	O	0.659486	0.931948	0.395627
266888351	C	0.617969	0.965226	0.359491
266888351	O	0.643242	0.899607	0.491847
266888351	H	0.684674	0.0147998	0.468019
266888351	O	0.713833	0.959001	0.372544
266888351	O	0.706953	0.0179508	0.497105
266888351	H	0.668164	0.0134332	0.562942
266888351	O	0.732703	0.0767619	0.571546
266888351	O	0.635394	0.0152392	0.497637
266888351	C	0.72388	0.974863	0.377005
266888351	O	0.728756	0.0918289	0.353588
266888351	O	0.429964	0.958526	0.587754
266888351	H	0.680014	0.849437	0.511967
266888351	C	0.431548	0.846398	0.351993
266888351	H	0.617086	0.987039	0.593072
266888351	C	0.428064	0.970905	0.502394
266888351	C	0.738873	0.847953	0.472118
266888351	O	0.715231	0.00493579	0.593626
266888351	C	0.589998	0.982884	0.346685
266888351	O	0.761246	0.90104	0.490263
266888351	C	0.428804	0.848219	0.373024
266888351	H	0.616524	0.0906885	0.399228
266888351	C	0.672763	0.924127	0.593837
266888351	H	0.703092	0.0671593	0.346426
266888351	H	0.682802	0.0206653	0.346797
266888351	O	0.477122	0.910131	0.623718
266888351	C	0.464841	0.915357	0.635805
266888351	Fe	0.466334	0.89021	0.751235
266888351	O	0.496788	0.884175	0.751769
266888351	O	0.469065	0.898078	0.721302
266888351	C	0.455573	0.900548	0.707466
266888351	H	0.502222	0.892436	0.762927
266888351	H	0.502326	0.88988	0.739516
266888351	O	0.564443	0.920254	0.617951
266888351	O	0.567455	0.879562	0.707031
266888351	C	0.566389	0.892152	0.720198
266888351	O	0.576567	0.890232	0.73606
266888351	C	0.55781	0.911125	0.714633
266888351	C	0.558505	0.916383	0.694745
266888351	H	0.556827	0.9188	0.744938
266888351	H	0.56136	0.904711	0.683899
266888351	C	0.459435	0.880369	0.646708
266888351	C	0.458383	0.871434	0.681873
266888351	C	0.459284	0.900743	0.651376
266888351	C	0.458006	0.89257	0.686691
266888351	C	0.458808	0.906322	0.671428
266888351	C	0.458968	0.864685	0.660898
266888351	H	0.456798	0.921791	0.674978
266888351	H	0.462411	0.87635	0.63117
266888351	O	0.459424	0.933752	0.63548
266888351	O	0.459525	0.935275	0.743824
266888351	C	0.466779	0.93196	0.761121
266888351	O	0.560909	0.94994	0.760391
266888351	O	0.550578	0.974799	0.742466
266888351	C	0.556281	0.957696	0.743839
266888351	F	0.543698	0.00974956	0.738013
266888351	Fe	0.582162	0.976899	0.647024
266888351	O	0.562128	0.959871	0.662032
266888351	C	0.566845	0.942675	0.668949
266888351	O	0.577501	0.930267	0.659319
266888351	O	0.560147	0.990371	0.632413
266888351	O	0.585754	0.95692	0.624421
266888351	C	0.560787	0.993858	0.614121
266888351	F	0.578234	0.995401	0.665927
266888351	O	0.499983	0.0174409	0.687331
266888351	O	0.480149	0.995651	0.712849
266888351	H	0.474796	0.985296	0.702697
266888351	Fe	0.453661	0.00989824	0.719457
266888351	O	0.480638	0.0675464	0.717449
266888351	O	0.455532	0.0782262	0.699691
266888351	C	0.470475	0.081658	0.710195
266888351	O	0.467096	0.0220669	0.743504
266888351	Fe	0.490274	0.042593	0.702543
266888351	O	0.463106	0.0342913	0.703558
266888351	Fe	0.442154	0.0501309	0.691823
266888351	O	0.440448	0.997607	0.69395
266888351	C	0.437274	0.00825762	0.679226
266888351	O	0.457069	0.0501405	0.667657
266888351	O	0.519531	0.0514998	0.702555
266888351	O	0.496352	0.0305512	0.730185
266888351	O	0.487454	0.0583421	0.675925
266888351	C	0.484438	0.0288394	0.744478
266888351	C	0.471442	0.0617101	0.667136
266888351	H	0.520375	0.0654952	0.697218
266888351	H	0.52298	0.0539479	0.716753
266888351	F	0.446017	0.988062	0.732886
266888351	O	0.528185	0.0581011	0.628584
266888351	O	0.486438	0.0486066	0.623028
266888351	C	0.477442	0.0324725	0.61938
266888351	H	0.529814	0.0431157	0.630618
266888351	H	0.52366	0.0638899	0.640702
266888351	C	0.562414	0.0711927	0.755087
266888351	H	0.491309	0.960063	0.754395
266888351	C	0.558415	0.951199	0.70557
266888351	C	0.555885	0.925099	0.730146
266888351	C	0.559433	0.936928	0.689461
266888351	C	0.556701	0.944874	0.725928
266888351	H	0.559778	0.967166	0.702514
266888351	C	0.578095	0.052162	0.727174
266888351	C	0.576801	0.0564028	0.747636
266888351	H	0.570372	0.0616482	0.71657
266888351	C	0.453675	0.0181612	0.644899
266888351	C	0.462416	0.986913	0.660962
266888351	C	0.47256	0.0184554	0.636679
266888351	C	0.481142	0.987507	0.652221
266888351	C	0.487134	0.0042821	0.641672
266888351	C	0.450046	0.00431145	0.661104
266888351	H	0.45894	0.974631	0.671067
266888351	H	0.502875	0.00558757	0.637703
266888351	H	0.444414	0.0296544	0.640327
266888351	C	0.578596	0.0266315	0.620521
266888351	H	0.470008	0.887946	0.823355
266888351	H	0.574244	0.0269072	0.636326
266888351	H	0.523581	0.0371421	0.756117
266888351	H	0.510889	0.0232479	0.678355
266888351	H	0.485421	0.988599	0.724339
266888351	O	0.489473	0.954327	0.662231
266888351	C	0.495547	0.970863	0.655142
266888351	O	0.515682	0.973993	0.650985
266888351	H	0.523215	0.96129	0.653071
266888351	O	0.535579	0.877181	0.823632
266888351	O	0.473652	0.915706	0.765179
266888351	O	0.465593	0.881022	0.780267
266888351	C	0.451721	0.871753	0.789665
266888351	C	0.462152	0.874116	0.826555
266888351	C	0.454564	0.863714	0.810384
266888351	O	0.441105	0.96461	0.830014
266888351	C	0.460011	0.966282	0.828796
266888351	O	0.451371	0.0210134	0.810489
266888351	O	0.477591	0.0153241	0.830291
266888351	C	0.469869	0.0219252	0.814505
266888351	Fe	0.550741	0.996662	0.761352
266888351	O	0.551738	0.0250215	0.774526
266888351	C	0.540454	0.0263792	0.789406
266888351	O	0.547689	0.0207473	0.805966
266888351	O	0.555194	0.958125	0.819219
266888351	O	0.551825	0.989275	0.828428
266888351	C	0.548318	0.971116	0.830631
266888351	O	0.522855	0.989268	0.7704
266888351	Fe	0.558319	0.955333	0.789194
266888351	O	0.559381	0.984196	0.784896
266888351	Fe	0.570059	0.000135969	0.806586
266888351	O	0.555858	0.92488	0.793741
266888351	O	0.527595	0.959776	0.787426
266888351	C	0.516561	0.974314	0.780368
266888351	O	0.556053	0.0703746	0.773381
266888351	F	0.519375	0.0731526	0.792499
266888351	C	0.487869	0.973507	0.803534
266888351	C	0.461127	0.951853	0.793365
266888351	C	0.495335	0.971704	0.784346
266888351	C	0.470242	0.948998	0.774718
266888351	C	0.485519	0.96148	0.769374
266888351	C	0.469359	0.964311	0.80826
266888351	H	0.447231	0.942458	0.797735
266888351	H	0.497691	0.979945	0.815593
266888351	C	0.477774	0.0335546	0.779846
266888351	C	0.51223	0.0349788	0.767421
266888351	C	0.484109	0.0290634	0.799752
266888351	C	0.51875	0.030879	0.786596
266888351	C	0.505153	0.0268232	0.802075
266888351	C	0.491753	0.0338848	0.764157
266888351	H	0.510422	0.0242187	0.81743
266888351	H	0.462851	0.0351417	0.776381
266888351	C	0.468398	0.0805353	0.656824
266888351	O	0.441075	0.913615	0.710075
266888351	C	0.546859	0.8667	0.812769
266888351	H	0.554441	0.921546	0.808063
266888351	H	0.543783	0.920618	0.786422
266888351	Fe	0.508414	0.060599	0.605435
266888351	O	0.461966	0.863421	0.73993
266888351	C	0.541415	0.860979	0.79143
266888351	O	0.503741	0.0901425	0.613649
266888351	O	0.584412	0.0166201	0.828429
266888351	O	0.56372	0.861956	0.819274
266888351	O	0.49258	0.952669	0.613281
266888351	Fe	0.446893	0.946785	0.609921
266888351	C	0.556471	0.860645	0.776289
266888351	H	0.511521	0.995483	0.609384
266888351	H	0.525785	0.865878	0.641657
266888351	H	0.457662	0.860468	0.693393
266888351	O	0.526136	0.85984	0.654255
266888351	C	0.570015	0.0121424	0.607753
266888351	O	0.475032	0.0265411	0.601262
266888351	F	0.513836	0.918371	0.610314
266888351	H	0.539331	0.856399	0.65722
266888351	O	0.579886	0.0016988	0.754648
266888351	O	0.438442	0.898419	0.749805
266888351	Fe	0.590367	0.928987	0.631351
266888351	C	0.485046	0.965965	0.603275
266888351	C	0.446554	0.852766	0.734832
266888351	O	0.560283	0.979723	0.601865
266888351	O	0.576927	0.0817295	0.671423
266888351	O	0.588221	0.0135451	0.784955
266888351	Fe	0.584983	0.854264	0.705064
266888351	C	0.580648	0.0781391	0.831903
266888351	C	0.588513	0.0468819	0.761803
266888351	H	0.57192	0.863706	0.778866
266888351	O	0.555635	0.0845174	0.744115
266888351	H	0.497612	0.0832241	0.64547
266888351	Fe	0.432357	0.924672	0.737362
266888351	H	0.586643	0.0498699	0.777257
266888351	O	0.552528	0.0840499	0.812155
266888351	C	0.590434	0.0128013	0.765808
266888351	O	0.466871	0.968239	0.602715
266888351	C	0.523232	0.851449	0.787667
266888351	O	0.589407	0.895147	0.8276
266888351	Fe	0.48799	0.92431	0.601398
266888351	H	0.443485	0.0690036	0.80101
266888351	C	0.4829	0.0893096	0.645966
266888351	O	0.588512	0.953881	0.791447
266888351	O	0.433959	0.0732939	0.79036
266888351	H	0.591012	0.890418	0.626942
266888351	H	0.539013	0.933462	0.839423
266888351	H	0.499045	0.876293	0.841981
266888351	H	0.505564	0.854047	0.83961
266888351	H	0.444009	0.078606	0.781161
266888351	O	0.434904	0.870029	0.782631
266888351	H	0.569041	0.0723934	0.680692
266888351	C	0.592067	0.0376796	0.71995
266888351	C	0.442827	0.847338	0.81387
266888351	H	0.576951	0.0150631	0.840845
266888351	O	0.471535	0.974561	0.842647
266888351	H	0.596927	0.889898	0.816232
266888351	O	0.487557	0.8472	0.653656
266888351	C	0.568614	0.0911057	0.81937
266888351	O	0.431973	0.965438	0.628914
266888351	H	0.579503	0.0928489	0.679399
266888351	O	0.428782	0.0253174	0.68194
266888351	Fe	0.586394	0.963309	0.595712
266888351	F	0.567603	0.849938	0.684459
266888351	Fe	0.537991	0.0914048	0.785542
266888351	H	0.7592	0.0075137	0.750794
266888351	H	0.455955	0.0769056	0.840037
266888351	O	0.624454	0.909449	0.835144
266888351	H	0.428245	0.957301	0.641222
266888351	H	0.591849	0.0641818	0.806064
266888351	Fe	0.427977	0.0201973	0.829633
266888351	C	0.696043	0.995264	0.843282
266888351	O	0.622977	0.847981	0.758759
266888351	C	0.559912	0.924438	0.599516
266888351	C	0.760567	0.936594	0.704922
266888351	C	0.594005	0.0663098	0.821743
266888351	H	0.439337	0.0865239	0.667838
266888351	C	0.594969	0.0373198	0.614115
266888351	C	0.551993	0.852463	0.757237
266888351	H	0.743405	0.0765826	0.604881
266888351	C	0.449438	0.0898311	0.656954
266888351	H	0.694374	0.855427	0.824348
266888351	O	0.518053	0.0312876	0.598086
266888351	C	0.616393	0.932611	0.596358
266888351	H	0.433523	0.951422	0.710809
266888351	C	0.512279	0.989121	0.594627
266888351	O	0.757454	0.0813708	0.604018
266888351	O	0.671972	0.0802809	0.802801
266888351	O	0.429155	0.857862	0.741525
266888351	H	0.590707	0.894981	0.650429
266888351	Fe	0.653095	0.846776	0.621484
266888351	O	0.677367	0.959018	0.694829
266888351	Fe	0.582151	0.869238	0.843266
266888351	O	0.641393	0.0921787	0.637559
266888351	C	0.724161	0.093688	0.812513
266888351	H	0.598324	0.0120775	0.829525
266888351	H	0.683071	0.849636	0.786907
266888351	C	0.710932	0.888128	0.843007
266888351	C	0.532143	0.847476	0.752398
266888351	O	0.59639	0.899348	0.638269
266888351	H	0.512732	0.847448	0.799307
266888351	H	0.690405	0.982623	0.72937
266888351	O	0.602373	0.852693	0.826423
266888351	H	0.761163	0.000454226	0.843534
266888351	O	0.651144	0.932024	0.835145
266888351	C	0.469416	0.845108	0.65509
266888351	H	0.501315	0.86545	0.598376
266888351	H	0.608187	0.0898573	0.734859
266888351	C	0.655639	0.960924	0.64237
266888351	Fe	0.647301	0.0513968	0.691097
266888351	O	0.723569	0.874152	0.841685
266888351	C	0.627094	0.991936	0.788233
266888351	H	0.639701	0.939694	0.838253
266888351	H	0.654158	0.994559	0.745724
266888351	H	0.680169	0.00458518	0.641795
266888351	O	0.701364	0.854459	0.603677
266888351	C	0.669818	0.993665	0.645404
266888351	C	0.66537	0.861451	0.83735
266888351	O	0.625537	0.0503073	0.626629
266888351	H	0.597952	0.92355	0.742014
266888351	H	0.627793	0.989415	0.674669
266888351	O	0.609608	0.915048	0.746075
266888351	H	0.75668	0.894215	0.667632
266888351	C	0.637019	0.924527	0.599184
266888351	C	0.643539	0.913251	0.833838
266888351	C	0.61702	0.965688	0.76521
266888351	H	0.687764	0.90673	0.615037
266888351	C	0.634616	0.879988	0.691362
266888351	C	0.66715	0.847069	0.663349
266888351	C	0.640401	0.999953	0.773854
266888351	C	0.740484	0.941806	0.70211
266888351	C	0.631534	0.972393	0.751841
266888351	C	0.673818	0.913328	0.611489
266888351	O	0.59748	0.0557917	0.643864
266888351	C	0.667549	0.853935	0.787827
266888351	H	0.684424	0.971391	0.696358
266888351	O	0.602677	0.869655	0.686078
266888351	C	0.678502	0.903582	0.714211
266888351	C	0.736686	0.95257	0.68386
266888351	O	0.623404	0.0436369	0.798378
266888351	C	0.692203	0.0781867	0.807902
266888351	O	0.592051	0.980771	0.810059
266888351	H	0.619479	0.0572983	0.793669
266888351	C	0.598134	0.0298577	0.755545
266888351	Fe	0.731949	0.986856	0.612441
266888351	O	0.633627	0.0302201	0.827822
266888351	F	0.755295	0.888957	0.704376
266888351	O	0.75818	0.0224504	0.751364
266888351	Fe	0.606494	0.885358	0.735672
266888351	O	0.596623	0.0469107	0.686004
266888351	O	0.604794	0.963265	0.662213
266888351	H	0.665665	0.0668697	0.802551
266888351	C	0.642229	0.878367	0.789626
266888351	O	0.69369	0.898392	0.725993
266888351	C	0.702222	0.96722	0.816889
266888351	H	0.626572	0.909052	0.625015
266888351	C	0.623011	0.0432949	0.81887
266888351	C	0.723541	0.996233	0.817503
266888351	Fe	0.667717	0.937952	0.771959
266888351	H	0.652289	0.0316337	0.723347
266888351	C	0.736949	0.986953	0.804347
266888351	C	0.606258	0.0488355	0.629209
266888351	O	0.72744	0.930129	0.734611
266888351	O	0.69356	0.951954	0.623113
266888351	C	0.691478	0.969442	0.63037
266888351	O	0.724092	0.963561	0.59997
266888351	F	0.635305	0.867534	0.622143
266888351	C	0.628632	0.862746	0.78942
266888351	H	0.656089	0.946236	0.636489
266888351	C	0.742758	0.96207	0.647853
266888351	O	0.606668	0.895296	0.705695
266888351	C	0.720318	0.0631315	0.68172
266888351	Fe	0.707041	0.914275	0.752324
266888351	O	0.726654	0.952832	0.643443
266888351	C	0.653818	0.017631	0.778836
266888351	C	0.618043	0.86197	0.770303
266888351	O	0.759401	0.0139223	0.805249
266888351	H	0.683616	0.915816	0.834552
266888351	H	0.635445	0.892489	0.786192
266888351	C	0.706395	0.986637	0.825007
266888351	C	0.597935	0.969851	0.796081
266888351	C	0.692212	0.885796	0.831945
266888351	O	0.686633	0.934261	0.749252
266888351	Fe	0.682545	0.946441	0.721738
266888351	O	0.670584	0.866064	0.603128
266888351	O	0.670782	0.920917	0.713111
266888351	C	0.61492	0.975211	0.783501
266888351	H	0.730028	0.0810954	0.82092
266888351	O	0.622313	0.0464813	0.705876
266888351	H	0.609442	0.914088	0.76062
266888351	C	0.707187	0.939954	0.790594
266888351	C	0.638824	0.911955	0.615597
266888351	H	0.721239	0.957046	0.681406
266888351	O	0.645982	0.078997	0.700845
266888351	O	0.717532	0.932552	0.775993
266888351	C	0.714571	0.95808	0.802005
266888351	O	0.633853	0.061362	0.668093
266888351	C	0.641901	0.990527	0.755315
266888351	C	0.703796	0.0755455	0.676126
266888351	C	0.657577	0.908022	0.622907
266888351	H	0.689195	0.959074	0.821186
266888351	C	0.735114	0.0913252	0.698565
266888351	O	0.657241	0.962031	0.73091
266888351	O	0.673902	0.967488	0.773024
266888351	H	0.72652	0.91635	0.64343
266888351	H	0.608626	0.952131	0.762235
266888351	O	0.678197	0.896476	0.652141
266888351	O	0.666123	0.85719	0.647201
266888351	Fe	0.718525	0.940117	0.617459
266888351	O	0.745513	0.931656	0.610782
266888351	O	0.645153	0.940408	0.751482
266888351	O	0.676165	0.0542714	0.680665
266888351	H	0.704595	0.922093	0.648326
266888351	C	0.688993	0.867362	0.59773
266888351	H	0.643197	0.869033	0.731601
266888351	O	0.602416	0.994625	0.634768
266888351	H	0.641052	0.906914	0.703678
266888351	C	0.658253	0.89653	0.83357
266888351	C	0.662372	0.858157	0.681768
266888351	O	0.754631	0.0454882	0.715279
266888351	F	0.64991	0.940582	0.79191
266888351	O	0.67338	0.0756866	0.656275
266888351	H	0.615313	0.98774	0.634
266888351	C	0.652598	0.0194849	0.662546
266888351	H	0.677659	0.899751	0.666016
266888351	H	0.635949	0.873445	0.838594
266888351	C	0.661274	0.874663	0.78355
266888351	H	0.632543	0.851419	0.676487
266888351	C	0.639091	0.966934	0.653685
266888351	C	0.753718	0.0581706	0.700566
266888351	H	0.700938	0.968794	0.744159
266888351	C	0.684698	0.866675	0.83024
266888351	C	0.601421	0.0270028	0.734843
266888351	C	0.750488	0.955126	0.668618
266888351	H	0.721088	0.0472732	0.67736
266888351	O	0.705633	0.982309	0.629443
266888351	H	0.739254	0.90478	0.761738
266888351	O	0.658427	0.0328797	0.649679
266888351	O	0.730069	0.894856	0.756471
266888351	O	0.644139	0.898848	0.654721
266888351	C	0.654526	0.999041	0.658194
266888351	H	0.690912	0.868918	0.691487
266888351	H	0.624617	0.998654	0.801874
266888351	C	0.613716	0.883194	0.692304
266888351	O	0.601731	0.924135	0.604679
266888351	C	0.672235	0.892888	0.775341
266888351	C	0.755708	0.996363	0.798179
266888351	F	0.661226	0.0620835	0.619594
266888351	H	0.743681	0.958675	0.789871
266888351	H	0.612781	0.0159369	0.731909
266888351	O	0.698689	0.971081	0.729837
266888351	O	0.66187	0.0397654	0.71594
266888351	C	0.630247	0.0894251	0.703864
266888351	C	0.604484	0.0421796	0.702701
266888351	C	0.641499	0.861511	0.683748
266888351	C	0.683248	0.0680779	0.670393
266888351	C	0.619775	0.955123	0.653671
266888351	O	0.689516	0.934485	0.793695
266888351	H	0.60402	0.00611623	0.643939
266888351	O	0.690488	0.893161	0.770831
266888351	H	0.735143	0.891842	0.74316
266888351	C	0.724726	0.935797	0.716196
266888351	C	0.668237	0.889458	0.700991
266888351	O	0.661509	0.908531	0.771975
266888351	H	0.642257	0.883651	0.748835
266888351	O	0.713163	0.916469	0.637388
266888351	C	0.644105	0.957003	0.743095
266888351	O	0.645747	0.0238485	0.679513
266888351	H	0.68225	0.949503	0.684431
266888351	C	0.652005	0.877016	0.836998
266888351	Fe	0.606506	0.0704097	0.669506
266888351	C	0.659756	0.900455	0.643964
266888351	O	0.60423	0.987814	0.599687
266888351	O	0.617945	0.939393	0.643402
266888351	C	0.64798	0.893521	0.69799
266888351	O	0.638139	0.881964	0.735331
266888351	C	0.735507	0.0704117	0.695158
266888351	H	0.672449	0.972656	0.78704
266888351	F	0.739594	0.0100527	0.627261
266888351	O	0.665177	0.0262209	0.763971
266888351	C	0.639819	0.985411	0.664294
266888351	C	0.73292	0.966864	0.798214
266888351	O	0.700076	0.0605841	0.810703
266888351	H	0.673495	0.0376056	0.769564
266888351	O	0.657479	0.021372	0.797331
266888351	Fe	0.648786	0.0617606	0.642929
266888351	O	0.751253	0.972309	0.633971
266888351	H	0.726029	0.0123633	0.822349
266888351	C	0.675457	0.871327	0.691664
266888351	O	0.602956	0.857989	0.725721
266888351	O	0.706886	0.934376	0.709392
266888351	C	0.67175	0.974298	0.639007
266888351	C	0.677673	0.900548	0.833152
266888351	O	0.60638	0.875773	0.764401
266888351	O	0.614269	0.0858183	0.69433
266888351	H	0.672506	0.0313034	0.71129
266888351	C	0.609595	0.0566759	0.831169
266888351	H	0.611506	0.848097	0.837373
266888351	C	0.60287	0.0331022	0.595048
266888351	H	0.556781	0.88476	0.594635
266888351	O	0.707904	0.924407	0.595169
266888351	H	0.472766	0.936446	0.950297
266888351	O	0.517852	0.975019	0.917369
266888351	H	0.532279	0.00802883	0.914054
266888351	C	0.466198	0.0631374	0.0466034
266888351	C	0.47252	0.966198	0.93915
266888351	O	0.535277	0.906228	0.88438
266888351	C	0.526504	0.914207	0.870192
266888351	Fe	0.565639	0.897342	0.883967
266888351	C	0.541861	0.861627	0.896862
266888351	F	0.567737	0.908714	0.908353
266888351	Fe	0.460431	0.867449	0.907018
266888351	O	0.473766	0.869033	0.879137
266888351	C	0.465824	0.87924	0.865013
266888351	O	0.459323	0.895716	0.869224
266888351	O	0.468908	0.898284	0.913732
266888351	C	0.458807	0.914611	0.915229
266888351	O	0.445229	0.967798	0.873596
266888351	O	0.459203	0.995059	0.882477
266888351	C	0.455916	0.977006	0.88523
266888351	O	0.463772	0.0304502	0.86672
266888351	C	0.452243	0.0440462	0.86044
266888351	F	0.565935	0.0442948	0.91883
266888351	C	0.451686	0.0791642	0.855761
266888351	C	0.453652	0.063379	0.869041
266888351	C	0.468801	0.977069	0.921473
266888351	C	0.463561	0.967166	0.903019
266888351	C	0.46729	0.935746	0.918718
266888351	C	0.466407	0.947175	0.901641
266888351	H	0.465917	0.939618	0.886991
266888351	H	0.468336	0.993145	0.922499
266888351	C	0.525074	0.948338	0.885639
266888351	C	0.530278	0.967928	0.884671
266888351	C	0.537254	0.975477	0.866029
266888351	C	0.526439	0.935645	0.868578
266888351	H	0.520862	0.943036	0.899343
266888351	H	0.540183	0.992014	0.864429
266888351	C	0.527664	0.981748	0.902399
266888351	C	0.471351	0.944774	0.937166
266888351	H	0.471328	0.0711618	0.0339557
266888351	O	0.455137	0.903713	0.0596853
266888351	C	0.462116	0.89617	0.0754031
266888351	F	0.460992	0.897889	0.0185826
266888351	C	0.520146	0.874022	0.0457211
266888351	O	0.575888	0.875663	0.0396231
266888351	O	0.576859	0.886877	0.00323405
266888351	O	0.546836	0.877575	0.973506
266888351	O	0.522996	0.88527	0.99326
266888351	C	0.536312	0.890431	0.981369
266888351	C	0.542521	0.911059	0.98015
266888351	C	0.562225	0.915461	0.972111
266888351	H	0.517087	0.924679	0.99569
266888351	H	0.571104	0.904931	0.96455
266888351	C	0.518909	0.907476	0.0609235
266888351	C	0.493866	0.884291	0.068913
266888351	C	0.511463	0.921321	0.0742673
266888351	C	0.483657	0.900086	0.0785226
266888351	C	0.492772	0.918719	0.0817913
266888351	C	0.510463	0.888543	0.0590349
266888351	H	0.532974	0.910792	0.0544889
266888351	O	0.58174	0.0527671	0.0613752
266888351	O	0.569656	0.957554	0.0795082
266888351	F	0.54238	0.988687	0.0813854
266888351	O	0.469133	0.992265	0.964564
266888351	O	0.498068	0.97681	0.961674
266888351	C	0.479869	0.978519	0.956628
266888351	Fe	0.516428	0.998194	0.974239
266888351	O	0.533091	0.0184441	0.98967
266888351	C	0.539117	0.0169121	0.00722148
266888351	O	0.530903	0.00550861	0.020338
266888351	O	0.470833	0.0306208	0.0155545
266888351	O	0.49364	0.0179971	0.0372879
266888351	C	0.480072	0.0306332	0.0329944
266888351	O	0.503936	0.0192707	0.955695
266888351	Fe	0.471258	0.0137892	0.989998
266888351	O	0.496828	0.00177185	0.996165
266888351	Fe	0.504078	0.992226	0.0229404
266888351	O	0.532868	0.978607	0.989265
266888351	O	0.512253	0.982635	0.0506869
266888351	O	0.514008	0.964756	0.00994046
266888351	C	0.52871	0.963141	0.998001
266888351	O	0.476102	0.980121	0.0292319
266888351	O	0.486477	0.0375283	0.975385
266888351	O	0.453973	0.99316	0.00695077
266888351	C	0.500564	0.0362414	0.963042
266888351	C	0.45784	0.983634	0.0234845
266888351	H	0.509874	0.968264	0.0504006
266888351	H	0.502589	0.988366	0.0603946
266888351	F	0.535093	0.994638	0.953998
266888351	C	0.574946	0.0177946	0.998875
266888351	C	0.558732	0.025409	0.0103655
266888351	C	0.581503	0.047742	0.0273507
266888351	C	0.563007	0.0393506	0.0261962
266888351	H	0.551389	0.0439418	0.0367452
266888351	C	0.560702	0.948215	0.98557
266888351	C	0.532363	0.926172	0.99115
266888351	C	0.57214	0.932926	0.976615
266888351	C	0.54068	0.945125	0.992486
266888351	H	0.567828	0.963059	0.989463
266888351	C	0.51342	0.0535022	0.956508
266888351	H	0.541598	0.0424081	0.966795
266888351	C	0.462118	0.0329817	0.0651381
266888351	C	0.471193	0.0429534	0.0490681
266888351	O	0.533187	0.00119276	0.901201
266888351	C	0.586578	0.0596808	0.0444413
266888351	O	0.573126	0.923171	0.869488
266888351	H	0.565738	0.894377	0.00859352
266888351	Fe	0.58518	0.064594	0.923484
266888351	C	0.586786	0.951701	0.0862269
266888351	Fe	0.441202	0.88997	0.0363568
266888351	O	0.561317	0.883376	0.858691
266888351	H	0.464796	0.0167324	0.0677859
266888351	O	0.512753	0.870565	0.0287087
266888351	O	0.445763	0.867554	0.935182
266888351	C	0.449457	0.0428611	0.0779494
266888351	C	0.453776	0.0737573	0.060815
266888351	F	0.484964	0.8623	0.920644
266888351	C	0.448577	0.067729	0.889082
266888351	C	0.446009	0.0629673	0.0768686
266888351	O	0.442199	0.914229	0.906854
266888351	Fe	0.567888	0.861958	0.989086
266888351	O	0.528843	0.866771	0.883882
266888351	O	0.557929	0.871963	0.899162
266888351	H	0.576755	0.871813	0.954038
266888351	H	0.571973	0.00676188	0.987592
266888351	O	0.453957	0.880063	0.0824412
266888351	O	0.443526	0.0259953	0.98174
266888351	H	0.486275	0.870446	0.0669328
266888351	C	0.533765	0.0550241	0.96111
266888351	C	0.441289	0.976159	0.0368606
266888351	O	0.459063	0.86354	0.0403733
266888351	H	0.490598	0.0675153	0.937768
266888351	H	0.57348	0.880441	0.0533662
266888351	C	0.505649	0.0687306	0.944057
266888351	O	0.57824	0.0648781	0.951788
266888351	O	0.586481	0.867406	0.964483
266888351	H	0.43854	0.948985	0.0201545
266888351	Fe	0.467493	0.00356943	0.855946
266888351	Fe	0.533998	0.874207	0.853671
266888351	O	0.548826	0.857565	0.0113624
266888351	O	0.523439	0.90336	0.85457
266888351	O	0.496784	0.00520888	0.866325
266888351	H	0.550373	0.861496	0.934735
266888351	O	0.537035	0.86766	0.0513504
266888351	C	0.565874	0.077086	0.958379
266888351	Fe	0.520719	0.857061	0.00412087
266888351	O	0.490721	0.856257	0.995568
266888351	C	0.544063	0.0739145	0.957215
266888351	H	0.432619	0.87296	0.976228
266888351	H	0.553515	0.0817072	0.907895
266888351	C	0.515454	0.0868294	0.93946
266888351	C	0.434482	0.957251	0.0336049
266888351	O	0.564709	0.0868448	0.916675
266888351	O	0.434616	0.873378	0.894811
266888351	H	0.447881	0.0364515	0.972624
266888351	H	0.505505	0.998543	0.856288
266888351	C	0.535356	0.943047	0.851052
266888351	H	0.499163	0.0198169	0.865466
266888351	H	0.452503	0.0580258	0.901602
266888351	H	0.439224	0.0341773	0.992596
266888351	C	0.434562	0.985463	0.0550703
266888351	C	0.539172	0.963103	0.849226
266888351	H	0.439905	0.999926	0.05945
266888351	C	0.436335	0.0851988	0.893375
266888351	C	0.584235	0.0818175	0.852239
266888351	H	0.582411	0.895113	0.99309
266888351	C	0.533551	0.0902884	0.949386
266888351	C	0.527244	0.933553	0.084158
266888351	C	0.578008	0.0886142	0.0860591
266888351	H	0.593238	0.987533	0.0727637
266888351	Fe	0.431612	0.899598	0.881272
266888351	H	0.436703	0.0698215	0.0889595
266888351	O	0.543601	0.925068	0.087536
266888351	H	0.586735	0.927943	0.871861
266888351	H	0.576759	0.0938362	0.858199
266888351	H	0.760723	0.864926	0.0139895
266888351	C	0.543961	0.847497	0.930811
266888351	H	0.484151	0.867021	0.00236054
266888351	O	0.43992	0.0420067	0.846297
266888351	C	0.439273	0.0311761	0.0931802
266888351	C	0.458838	0.86812	0.846987
266888351	H	0.589723	0.854152	0.959552
266888351	O	0.524468	0.951777	0.0894527
266888351	C	0.718786	0.864149	0.9722
266888351	H	0.716398	0.912223	0.0838253
266888351	H	0.485766	0.9305	0.0907822
266888351	O	0.594457	0.890302	0.886638
266888351	C	0.457214	0.847675	0.050373
266888351	O	0.504805	0.864902	0.849793
266888351	Fe	0.751403	0.997866	0.879775
266888351	H	0.43861	0.852798	0.864347
266888351	H	0.563175	0.0361691	0.0898815
266888351	O	0.54169	0.845617	0.851481
266888351	O	0.5915	0.846346	0.999698
266888351	H	0.432317	0.936143	0.87894
266888351	H	0.440264	0.925603	0.858182
266888351	C	0.435841	0.092352	0.859616
266888351	C	0.753332	0.0101602	0.0714491
266888351	O	0.590615	0.0637578	0.894493
266888351	Fe	0.761107	0.863134	0.894569
266888351	C	0.664208	0.961614	0.0924486
266888351	O	0.619286	0.0945102	0.969286
266888351	O	0.440898	0.00147604	0.846251
266888351	H	0.490761	0.860626	0.981191
266888351	H	0.657881	0.0755297	0.898721
266888351	Fe	0.634204	0.90768	0.971793
266888351	H	0.573611	0.919121	0.855988
266888351	O	0.743399	0.0120153	0.96183
266888351	C	0.66354	0.0056253	0.917364
266888351	H	0.625521	0.937957	0.0918794
266888351	O	0.643687	0.0903808	0.945608
266888351	O	0.71903	0.951593	0.0757352
266888351	C	0.537852	0.845185	0.911466
266888351	C	0.643489	0.08272	0.000551368
266888351	O	0.721332	0.967392	0.90343
266888351	Fe	0.558071	0.851333	0.0388392
266888351	O	0.675517	0.044123	0.0738593
266888351	O	0.635998	0.847554	0.0787309
266888351	O	0.65503	0.088797	0.902962
266888351	H	0.676695	0.902291	0.91464
266888351	C	0.597374	0.0401168	0.0148971
266888351	O	0.62322	0.878533	0.965567
266888351	O	0.470553	0.0912215	0.958969
266888351	H	0.45674	0.0917694	0.964101
266888351	C	0.444419	0.852914	0.849564
266888351	O	0.573783	0.093235	0.962774
266888351	H	0.62315	0.0507265	0.859815
266888351	C	0.628877	0.883415	0.889506
266888351	C	0.728489	0.885862	0.944822
266888351	H	0.647642	0.863798	0.872812
266888351	O	0.755832	0.988623	0.850598
266888351	C	0.754337	0.00360592	0.090386
266888351	F	0.691723	0.951616	0.880189
266888351	C	0.594462	0.024815	0.00119405
266888351	C	0.744625	0.0417979	0.862639
266888351	C	0.717632	0.012703	0.010921
266888351	C	0.609107	0.881963	0.878599
266888351	H	0.693675	0.913232	0.0857139
266888351	C	0.428353	0.859571	0.93743
266888351	C	0.645945	0.904402	0.913028
266888351	C	0.62683	0.864521	0.079407
266888351	C	0.701898	0.87482	0.974877
266888351	C	0.71286	0.856516	0.0870427
266888351	H	0.616687	0.0106942	0.952299
266888351	H	0.623492	0.879375	0.950769
266888351	O	0.633008	0.0579822	0.920554
266888351	C	0.623475	0.0426766	0.927422
266888351	H	0.700261	0.952659	0.953553
266888351	H	0.691723	0.94199	0.934209
266888351	O	0.714811	0.0363496	0.948503
266888351	H	0.725008	0.0685096	0.888185
266888351	C	0.637574	0.0896481	0.963723
266888351	O	0.63943	0.0249893	0.070088
266888351	C	0.738849	0.885945	0.925403
266888351	C	0.622733	0.889878	0.0287603
266888351	C	0.595006	0.932838	0.978248
266888351	C	0.746493	0.0643067	0.865536
266888351	C	0.625858	0.88838	0.0493366
266888351	O	0.638118	0.90032	0.000300523
266888351	O	0.725908	0.022378	0.0244042
266888351	C	0.687856	0.876482	0.8866
266888351	O	0.6239	0.925037	0.0170538
266888351	C	0.749043	0.96252	0.925382
266888351	O	0.700595	0.886976	0.895721
266888351	Fe	0.628747	0.0878615	0.9179
266888351	O	0.697164	0.974953	0.0709316
266888351	H	0.732353	0.986763	0.936289
266888351	O	0.688598	0.952283	0.945024
266888351	O	0.65789	0.950852	0.00997753
266888351	Fe	0.732923	0.0381114	0.972963
266888351	C	0.67475	0.0716928	0.0131994
266888351	O	0.606947	0.0227042	0.0783507
266888351	H	0.709465	0.924363	0.902792
266888351	C	0.659063	0.991266	0.930313
266888351	C	0.623451	0.0146657	0.0728437
266888351	O	0.635874	0.974563	0.977271
266888351	C	0.628952	0.896504	0.905705
266888351	O	0.659358	0.0846871	0.0800401
266888351	C	0.696425	0.856383	0.0748977
266888351	O	0.693697	0.864057	0.87341
266888351	O	0.660187	0.923074	0.938593
266888351	O	0.743859	0.00556262	0.907002
266888351	C	0.697525	0.954362	0.0301942
266888351	H	0.65465	0.991705	0.0673776
266888351	O	0.642676	0.932854	0.977016
266888351	O	0.667458	0.869761	0.0894118
266888351	O	0.750399	0.968775	0.890271
266888351	C	0.681418	0.00351202	0.903767
266888351	O	0.605162	0.0428523	0.931064
266888351	O	0.747746	0.870554	0.920633
266888351	Fe	0.739088	0.0482347	0.021238
266888351	O	0.686023	0.985994	0.898175
266888351	H	0.667331	0.978421	0.929735
266888351	O	0.629224	0.913689	0.942721
266888351	C	0.737635	0.0747875	0.881378
266888351	H	0.723564	0.038265	0.0853209
266888351	H	0.683697	0.056569	0.0734305
266888351	C	0.62912	0.906088	0.0154367
266888351	C	0.598939	0.0708054	0.86315
266888351	Fe	0.646701	0.0550731	0.0757487
266888351	O	0.615987	0.0843833	0.889761
266888351	H	0.634856	0.86969	0.969513
266888351	C	0.711835	0.897467	0.949012
266888351	O	0.720325	0.000442022	0.0897911
266888351	C	0.647432	0.0729792	0.0359009
266888351	O	0.640879	0.0883456	0.0440938
266888351	O	0.684678	0.922786	0.972049
266888351	C	0.647452	0.874861	0.883752
266888351	H	0.615501	0.900294	0.913388
266888351	C	0.698153	0.98181	0.00567872
266888351	C	0.681119	0.90442	0.967766
266888351	C	0.70915	0.963089	0.0642325
266888351	O	0.620142	0.0660677	0.0760349
266888351	H	0.707794	0.908456	0.93806
266888351	O	0.749256	0.037269	0.995446
266888351	H	0.61199	0.0466765	0.0171304
266888351	O	0.729363	0.0343792	0.854187
266888351	O	0.694835	0.0135278	0.848468
266888351	O	0.689709	0.0189621	0.896484
266888351	F	0.729365	0.0580118	0.0453076
266888351	C	0.608925	0.85556	0.0289046
266888351	O	0.71552	0.926277	0.889386
266888351	O	0.73661	0.871564	0.881696
266888351	H	0.629252	0.088771	0.00466542
266888351	Fe	0.705974	0.974277	0.878633
266888351	O	0.754986	0.0723293	0.0144705
266888351	C	0.665986	0.881999	0.89153
266888351	O	0.754757	0.0576542	0.958996
266888351	H	0.727743	0.993222	0.0429447
266888351	H	0.683883	0.069283	0.0268015
266888351	O	0.730884	0.0347916	0.89928
266888351	C	0.630291	0.0093593	0.943418
266888351	C	0.611407	0.0142806	0.992773
266888351	C	0.644249	0.963675	0.0814511
266888351	H	0.701287	0.0347556	0.953613
266888351	C	0.611711	0.0583957	0.852113
266888351	C	0.690659	0.964223	0.0123319
266888351	C	0.753314	0.978595	0.957669
266888351	O	0.604406	0.916277	0.975247
266888351	O	0.677181	0.948001	0.0894226
266888351	O	0.724251	0.960114	0.859094
266888351	H	0.688777	0.941054	0.0350618
266888351	O	0.645398	0.959993	0.949154
266888351	O	0.648492	0.0571769	0.0452718
266888351	C	0.651592	0.0828278	0.980697
266888351	O	0.599091	0.0735253	0.0412748
266888351	O	0.751636	0.911005	0.873915
266888351	Fe	0.63062	0.949019	0.996603
266888351	Fe	0.597545	0.0501703	0.0879299
266888351	H	0.633696	0.900767	0.0546301
266888351	C	0.639792	0.975552	0.957862
266888351	Fe	0.723292	0.854092	0.863603
266888351	H	0.683997	0.0493516	0.866555
266888351	C	0.643737	0.993417	0.945652
266888351	Fe	0.6651	0.941549	0.961023
266888351	H	0.72425	0.946357	0.861997
266888351	H	0.692361	0.871521	0.987183
266888351	C	0.664128	0.897258	0.906018
266888351	C	0.651369	0.022615	0.916692
266888351	C	0.672057	0.0781271	0.977614
266888351	H	0.74512	0.86007	0.95379
266888351	C	0.698203	0.891465	0.963547
266888351	C	0.711539	0.964402	0.0424275
266888351	H	0.690425	0.988897	0.992848
266888351	O	0.603326	0.0877345	0.929789
266888351	O	0.603848	0.948341	0.984106
266888351	F	0.682114	0.00874722	0.0818715
266888351	C	0.615367	0.872812	0.0190226
266888351	Fe	0.615535	0.0899473	0.0601619
266888351	O	0.607959	0.996939	0.986137
266888351	C	0.672955	0.957981	0.00141069
266888351	O	0.69705	0.052313	0.87232
266888351	H	0.676403	0.0407303	0.0592786
266888351	C	0.742499	0.976257	0.940097
266888351	C	0.62543	0.952803	0.0845541
266888351	O	0.690062	0.98167	0.854916
266888351	C	0.60929	0.855466	0.0494061
266888351	H	0.678285	0.0766486	0.962148
266888351	C	0.72357	0.847517	0.985365
266888351	C	0.739692	0.965405	0.905332
266888351	C	0.607113	0.980085	0.0733499
266888351	O	0.7164	0.0628713	0.978635
266888351	C	0.718262	0.983326	0.0351355
266888351	C	0.753464	0.997661	0.968534
266888351	O	0.722463	0.998421	0.876396
266888351	F	0.620662	0.964531	0.0166903
266888351	O	0.755833	0.0286189	0.870958
266888351	H	0.739916	0.01643	0.0665252
266888351	H	0.728411	0.933758	0.891671
266888351	C	0.634965	0.0239884	0.929608
266888351	O	0.712669	0.0586256	0.0101364
266888351	C	0.654826	0.0750788	0.015863
266888351	C	0.60211	0.0737297	0.883708
266888351	C	0.68393	0.0712125	0.993879
266888351	O	0.711503	0.900368	0.857894
266888351	C	0.711019	0.992129	0.0169391
266888351	C	0.618682	0.871969	0.0598502
266888351	C	0.70538	0.0636013	0.993384
266888351	H	0.691811	0.0558783	0.886007
266888351	O	0.63099	0.0211173	0.995018
266888351	O	0.715662	0.0185137	0.99241
266888351	C	0.607445	0.961107	0.0796714
266888351	H	0.615253	0.872867	0.00292052
266888351	C	0.644237	0.915666	0.93149
266888351	C	0.743875	0.0240907	0.909745
266888351	H	0.717449	0.0246193	0.939224
266888351	C	0.642167	0.983207	0.0727672
266888351	O	0.738013	0.90069	0.913168
266888351	O	0.662738	0.897452	0.966777
266888351	Fe	0.726046	0.898658	0.884951
266888351	C	0.73203	0.869693	0.957201
266888351	C	0.623712	0.991673	0.0716928
266888351	O	0.607026	0.872833	0.862605
266888351	O	0.6732	0.959663	0.982499
266888351	H	0.638917	0.0121842	0.987699
266888351	H	0.656388	0.0348921	0.907025
266888351	Fe	0.710492	0.0244624	0.87498
266888351	C	0.678801	0.855342	0.0865868
266888351	O	0.428935	0.926624	0.868021
266888351	O	0.705709	0.913746	0.0939156
266888351	O	0.758029	0.0778255	0.0943873
266888351	O	0.780325	0.117333	0.242167
266888351	Fe	0.79201	0.160276	0.215746
266888351	O	0.811792	0.184085	0.212248
266888351	C	0.829626	0.183955	0.219538
266888351	O	0.831427	0.180263	0.237623
266888351	Fe	0.78438	0.142052	0.260607
266888351	O	0.8025	0.150947	0.240128
266888351	Fe	0.830844	0.151005	0.246417
266888351	O	0.809665	0.144828	0.200115
266888351	O	0.861045	0.14939	0.252192
266888351	O	0.8374	0.138318	0.217273
266888351	C	0.826418	0.136601	0.201477
266888351	O	0.82747	0.121448	0.255678
266888351	H	0.865039	0.135857	0.255815
266888351	Fe	0.891486	0.147089	0.122481
266888351	O	0.909006	0.162718	0.140092
266888351	C	0.908339	0.179908	0.146317
266888351	O	0.896622	0.193674	0.139635
266888351	O	0.880183	0.170638	0.106925
266888351	Fe	0.872011	0.193752	0.120799
266888351	O	0.87122	0.148118	0.14527
266888351	O	0.863119	0.217968	0.136779
266888351	O	0.856395	0.177368	0.143203
266888351	C	0.863144	0.163574	0.153878
266888351	H	0.850633	0.213185	0.14359
266888351	H	0.858277	0.226985	0.126405
266888351	F	0.902034	0.125445	0.134788
266888351	O	0.800144	0.113884	0.117755
266888351	C	0.79859	0.122677	0.134405
266888351	Fe	0.925314	0.118015	0.220978
266888351	O	0.901134	0.159158	0.239977
266888351	O	0.90331	0.138361	0.216321
266888351	C	0.895186	0.153352	0.223069
266888351	O	0.849617	0.249798	0.241809
266888351	H	0.8418	0.260789	0.235311
266888351	H	0.839462	0.240859	0.248228
266888351	O	0.91348	0.261171	0.18431
266888351	H	0.802006	0.180139	0.106536
266888351	C	0.865904	0.175936	0.217336
266888351	C	0.876427	0.156764	0.189044
266888351	C	0.847923	0.1801	0.207162
266888351	C	0.861894	0.165118	0.176535
266888351	C	0.847219	0.177451	0.186276
266888351	C	0.880131	0.162967	0.209612
266888351	H	0.885417	0.145367	0.182452
266888351	H	0.834504	0.18215	0.178
266888351	H	0.869783	0.182424	0.231271
266888351	C	0.832714	0.105333	0.185607
266888351	C	0.831597	0.125739	0.182259
266888351	C	0.812839	0.118801	0.150929
266888351	C	0.82172	0.132424	0.164532
266888351	H	0.817542	0.148161	0.164321
266888351	O	0.883972	0.275603	0.243086
266888351	C	0.899065	0.287184	0.244578
266888351	C	0.774574	0.1192	0.223931
266888351	C	0.913231	0.30414	0.213464
266888351	C	0.909276	0.321997	0.244774
266888351	C	0.903784	0.305547	0.232415
266888351	H	0.90529	0.321688	0.260397
266888351	H	0.909622	0.291005	0.20454
266888351	O	0.791399	0.16791	0.274729
266888351	O	0.825005	0.163418	0.276052
266888351	C	0.808783	0.172853	0.280856
266888351	O	0.804545	0.127136	0.277288
266888351	C	0.815924	0.115236	0.268914
266888351	H	0.866019	0.158121	0.261948
266888351	Fe	0.867157	0.258776	0.265239
266888351	O	0.85308	0.242974	0.314033
266888351	O	0.84469	0.244349	0.282979
266888351	C	0.84079	0.23759	0.30089
266888351	O	0.882851	0.230887	0.267153
266888351	O	0.911266	0.244169	0.266013
266888351	C	0.901461	0.229583	0.271746
266888351	C	0.894872	0.205311	0.298446
266888351	C	0.908625	0.21728	0.289188
266888351	H	0.879949	0.204838	0.293211
266888351	C	0.779773	0.270077	0.331556
266888351	H	0.775855	0.27211	0.31592
266888351	C	0.804127	0.226362	0.313756
266888351	C	0.791617	0.193379	0.30606
266888351	C	0.823175	0.222038	0.304337
266888351	C	0.80907	0.189014	0.294806
266888351	C	0.824628	0.203433	0.294488
266888351	C	0.787163	0.211751	0.313169
266888351	H	0.801995	0.239851	0.318963
266888351	H	0.91187	0.134218	0.324279
266888351	O	0.893111	0.260113	0.329894
266888351	Fe	0.868483	0.271219	0.314004
266888351	O	0.84593	0.284604	0.297485
266888351	C	0.850407	0.295318	0.283138
266888351	O	0.853281	0.286877	0.266755
266888351	O	0.910439	0.285223	0.259103
266888351	O	0.878118	0.30098	0.316166
266888351	Fe	0.912032	0.269397	0.28282
266888351	O	0.882932	0.267226	0.287342
266888351	O	0.806617	0.29188	0.308007
266888351	C	0.80639	0.29427	0.326914
266888351	Fe	0.790483	0.304586	0.285831
266888351	O	0.815751	0.306312	0.268741
266888351	F	0.785682	0.279105	0.276567
266888351	C	0.851978	0.318107	0.284885
266888351	H	0.813783	0.297399	0.256984
266888351	O	0.845651	0.196642	0.103777
266888351	O	0.910828	0.104294	0.196661
266888351	C	0.860478	0.327377	0.11357
266888351	O	0.784189	0.134185	0.137476
266888351	O	0.876764	0.129998	0.103493
266888351	C	0.856411	0.317424	0.131696
266888351	C	0.840297	0.303784	0.132232
266888351	C	0.829984	0.298889	0.114414
266888351	H	0.821447	0.284939	0.115033
266888351	H	0.83335	0.318599	0.309705
266888351	H	0.883612	0.302638	0.329875
266888351	H	0.912299	0.248836	0.192315
266888351	O	0.771186	0.136549	0.216362
266888351	C	0.835612	0.292714	0.150735
266888351	O	0.820603	0.281316	0.15079
266888351	H	0.872396	0.32288	0.259581
266888351	C	0.864099	0.329927	0.27202
266888351	O	0.772938	0.179058	0.230506
266888351	H	0.841008	0.28839	0.178963
266888351	O	0.847558	0.295388	0.167465
266888351	O	0.909512	0.10161	0.241351
266888351	H	0.899697	0.302613	0.288879
266888351	H	0.865425	0.319232	0.145237
266888351	Fe	0.79293	0.334777	0.327961
266888351	C	0.841967	0.327362	0.300644
266888351	O	0.793761	0.331763	0.29779
266888351	O	0.910807	0.297344	0.297321
266888351	H	0.83669	0.201471	0.284578
266888351	H	0.780728	0.181149	0.306689
266888351	H	0.910395	0.257029	0.170636
266888351	F	0.780143	0.169359	0.191603
266888351	C	0.911068	0.261351	0.322257
266888351	O	0.888849	0.211971	0.102399
266888351	C	0.918412	0.200395	0.324968
266888351	C	0.899783	0.196503	0.316784
266888351	O	0.915858	0.253608	0.306084
266888351	O	0.86567	0.183369	0.320116
266888351	C	0.884548	0.184467	0.32736
266888351	O	0.808751	0.310261	0.335463
266888351	H	0.778763	0.320239	0.215075
266888351	O	0.77377	0.313289	0.263528
266888351	C	0.798222	0.277724	0.338579
266888351	O	0.772182	0.317119	0.174778
266888351	O	0.773254	0.161207	0.106306
266888351	O	0.879665	0.102646	0.33619
266888351	H	0.907589	0.102075	0.300356
266888351	H	0.911338	0.185909	0.263693
266888351	C	0.765713	0.215635	0.31799
266888351	F	0.854758	0.27474	0.338016
266888351	H	0.794545	0.0979963	0.299371
266888351	C	0.767792	0.101496	0.211571
266888351	C	0.87944	0.337822	0.110428
266888351	O	0.763422	0.134743	0.280726
266888351	H	0.858306	0.172319	0.326017
266888351	H	0.838477	0.100744	0.2004
266888351	C	0.769637	0.329023	0.254087
266888351	C	0.924027	0.183713	0.160523
266888351	H	0.920187	0.155718	0.173414
266888351	H	0.922244	0.303598	0.290041
266888351	O	0.916522	0.147925	0.103623
266888351	C	0.769547	0.329036	0.125525
266888351	H	0.897874	0.0968326	0.10289
266888351	H	0.919988	0.194571	0.339197
266888351	C	0.924042	0.335793	0.23987
266888351	O	0.766531	0.319821	0.328875
266888351	O	0.764596	0.120286	0.10029
266888351	C	0.974108	0.0951823	0.160553
266888351	O	0.927396	0.333748	0.11063
266888351	H	0.924269	0.159381	0.108269
266888351	C	0.763623	0.319271	0.218804
266888351	H	0.0917822	0.17813	0.282905
266888351	O	0.763905	0.301142	0.300515
266888351	H	0.804525	0.340238	0.164813
266888351	C	0.92748	0.31729	0.207109
266888351	C	0.941105	0.306575	0.0955315
266888351	H	0.917643	0.109223	0.185069
266888351	C	0.926388	0.276522	0.329117
266888351	O	0.967783	0.232062	0.162399
266888351	C	0.914282	0.0960702	0.259092
266888351	C	0.814334	0.098147	0.155344
266888351	O	0.888411	0.176023	0.344128
266888351	H	0.950863	0.325473	0.34197
266888351	C	0.0781342	0.300595	0.304713
266888351	Fe	0.0813024	0.343259	0.322153
266888351	H	0.792542	0.315845	0.0953882
266888351	O	0.926105	0.151955	0.281184
266888351	O	0.925433	0.186532	0.258272
266888351	C	0.927995	0.137033	0.327495
266888351	C	0.0269698	0.250832	0.232
266888351	H	0.925995	0.213537	0.150295
266888351	C	0.848122	0.323681	0.0962983
266888351	C	0.766642	0.261371	0.344376
266888351	O	0.921896	0.341265	0.314157
266888351	H	0.924202	0.218652	0.0967278
266888351	O	0.961344	0.221515	0.0984914
266888351	O	0.945107	0.0952675	0.217889
266888351	C	0.928532	0.21823	0.296907
266888351	C	0.76765	0.333776	0.104317
266888351	H	0.943928	0.343814	0.214509
266888351	C	0.0911444	0.15957	0.180867
266888351	C	0.833848	0.308839	0.0957196
266888351	O	0.775732	0.342403	0.136743
266888351	H	0.0413635	0.106814	0.21467
266888351	H	0.814494	0.338243	0.255524
266888351	C	0.932004	0.333679	0.219599
266888351	O	0.0944205	0.301761	0.295185
266888351	C	0.930295	0.168383	0.172747
266888351	H	0.0848617	0.17769	0.32201
266888351	Fe	0.779663	0.0966308	0.105986
266888351	C	0.0372713	0.287767	0.10344
266888351	O	0.761347	0.313391	0.132641
266888351	C	0.960738	0.269578	0.0970478
266888351	C	0.0276374	0.256191	0.330161
266888351	H	0.0392617	0.340669	0.270965
266888351	C	0.0598113	0.242298	0.320508
266888351	H	0.0381798	0.192034	0.299318
266888351	H	0.0714034	0.1017	0.323252
266888351	O	0.0519353	0.0967079	0.152005
266888351	C	0.0489471	0.139121	0.0966936
266888351	H	0.997557	0.229467	0.139944
266888351	C	0.000904959	0.200418	0.314794
266888351	H	0.000779455	0.114675	0.117575
266888351	C	0.0519332	0.277759	0.315151
266888351	Fe	0.0190357	0.107807	0.323114
266888351	Fe	0.955567	0.114473	0.258743
266888351	O	0.0806516	0.222201	0.246319
266888351	H	0.934092	0.191538	0.268907
266888351	O	0.0910093	0.114367	0.1543
266888351	O	0.9962	0.243351	0.192298
266888351	C	0.0225068	0.294467	0.142029
266888351	H	0.014193	0.205899	0.261105
266888351	C	0.963981	0.24677	0.235557
266888351	O	0.0562101	0.193051	0.26664
266888351	C	0.951554	0.30194	0.32021
266888351	H	0.975377	0.180192	0.290852
266888351	H	0.0863683	0.152117	0.194295
266888351	O	0.978719	0.135199	0.25703
266888351	H	0.0422377	0.290338	0.318299
266888351	O	0.991152	0.216282	0.309637
266888351	H	0.0152434	0.127453	0.291147
266888351	O	0.00183284	0.10079	0.122896
266888351	O	0.949193	0.240066	0.186903
266888351	F	0.973295	0.0985886	0.272045
266888351	O	0.0935638	0.216468	0.132585
266888351	C	0.0387924	0.281108	0.13909
266888351	O	0.96111	0.163539	0.260296
266888351	O	0.0142046	0.17754	0.221724
266888351	Fe	0.0529531	0.102149	0.180499
266888351	O	0.0494416	0.168777	0.246872
266888351	O	0.947709	0.125687	0.285457
266888351	O	0.0567638	0.106216	0.210718
266888351	Fe	0.0272436	0.097622	0.138598
266888351	O	0.0149817	0.248022	0.319644
266888351	C	0.00500209	0.186198	0.299067
266888351	O	0.00923207	0.274729	0.166134
266888351	H	0.97373	0.147016	0.307093
266888351	O	0.938233	0.166358	0.22206
266888351	H	0.971645	0.182059	0.233016
266888351	C	0.94398	0.171407	0.187815
266888351	C	0.962581	0.144546	0.319468
266888351	O	0.0442182	0.14981	0.210583
266888351	Fe	0.987318	0.24359	0.324243
266888351	H	0.0223021	0.104722	0.284749
266888351	O	0.00189092	0.133689	0.32907
266888351	O	0.0443902	0.123634	0.319445
266888351	C	0.963312	0.313373	0.303001
266888351	O	0.939707	0.138353	0.202248
266888351	C	0.0140826	0.161064	0.266491
266888351	H	0.037491	0.142535	0.221016
266888351	C	0.0785364	0.143556	0.266601
266888351	O	0.976449	0.268013	0.139322
266888351	C	0.0462483	0.177792	0.262551
266888351	H	0.00460414	0.220095	0.231696
266888351	O	0.948784	0.208216	0.232784
266888351	O	0.0685018	0.127648	0.17397
266888351	C	0.955436	0.226273	0.175658
266888351	H	0.975642	0.220265	0.103366
266888351	O	0.961332	0.205855	0.337408
266888351	C	0.994123	0.120689	0.173935
266888351	O	0.0222214	0.123606	0.152149
266888351	C	0.977121	0.153293	0.262747
266888351	C	0.939845	0.31261	0.188611
266888351	H	0.970183	0.247749	0.291263
266888351	O	0.0382396	0.112244	0.11466
266888351	O	0.969323	0.296278	0.217801
266888351	C	0.990657	0.135927	0.343257
266888351	H	0.996138	0.122277	0.206518
266888351	H	0.948245	0.243815	0.231988
266888351	C	0.953598	0.191091	0.188175
266888351	O	0.952228	0.321783	0.29008
266888351	O	0.00258918	0.339273	0.265389
266888351	F	0.0550929	0.231389	0.278321
266888351	H	0.0311742	0.220745	0.173423
266888351	F	0.994794	0.323321	0.203033
266888351	H	0.963599	0.195894	0.199177
266888351	C	0.958195	0.270455	0.136159
266888351	C	0.941211	0.158045	0.204856
266888351	H	0.021865	0.221693	0.27856
266888351	C	0.0304418	0.17138	0.276179
266888351	O	0.934667	0.297871	0.177702
266888351	H	0.0220654	0.327357	0.312659
266888351	C	0.988604	0.114797	0.193686
266888351	H	0.982633	0.121878	0.144858
266888351	C	0.93197	0.202641	0.161468
266888351	C	0.960701	0.279899	0.221826
266888351	H	0.0147863	0.245521	0.140211
266888351	C	0.0786456	0.246063	0.313538
266888351	O	0.0698778	0.120625	0.11957
266888351	C	0.0513893	0.133085	0.333466
266888351	H	0.000425641	0.282916	0.237904
266888351	H	0.938191	0.302892	0.128314
266888351	C	0.0796028	0.190345	0.197438
266888351	C	0.0794749	0.109787	0.334303
266888351	H	0.940447	0.226096	0.288131
266888351	C	0.0439877	0.275918	0.119552
266888351	C	0.941486	0.14349	0.313615
266888351	O	0.937134	0.130809	0.244564
266888351	C	0.946969	0.206299	0.175262
266888351	C	0.0257115	0.304666	0.107789
266888351	O	0.00441301	0.194953	0.332827
266888351	H	0.984841	0.246714	0.201566
266888351	O	0.00612968	0.237112	0.14964
266888351	C	0.0828719	0.129709	0.162691
266888351	C	0.953935	0.278952	0.115551
266888351	C	0.07228	0.128057	0.340409
266888351	C	0.0560147	0.258387	0.115379
266888351	O	0.0594167	0.245084	0.181824
266888351	H	0.0453298	0.272442	0.151564
266888351	C	0.943535	0.282897	0.31814
266888351	O	0.0728056	0.240402	0.220721
266888351	C	0.96875	0.140216	0.338986
266888351	O	0.996245	0.305536	0.164628
266888351	O	0.0716989	0.129623	0.255463
266888351	O	0.0692873	0.191732	0.0998347
266888351	C	0.975432	0.229791	0.235993
266888351	O	0.981562	0.319622	0.303222
266888351	H	0.0464376	0.173704	0.181283
266888351	O	0.0212732	0.217816	0.263999
266888351	H	0.94871	0.273211	0.307272
266888351	C	0.990579	0.177176	0.287505
266888351	C	0.0526449	0.122998	0.111215
266888351	O	0.0389791	0.184323	0.188874
266888351	C	0.933496	0.211337	0.31584
266888351	Fe	0.0511083	0.226727	0.204294
266888351	O	0.0268845	0.217249	0.18727
266888351	C	0.0252369	0.183117	0.293659
266888351	O	0.957499	0.236994	0.326261
266888351	H	0.05596	0.13897	0.284614
266888351	C	0.97242	0.265856	0.235286
266888351	O	0.0413149	0.248129	0.244465
266888351	Fe	0.0499177	0.219964	0.253933
266888351	O	0.96962	0.107598	0.231502
266888351	O	0.970764	0.275722	0.179434
266888351	C	0.995542	0.23276	0.235091
266888351	Fe	0.943175	0.269534	0.181504
266888351	C	0.0860053	0.232121	0.231724
266888351	O	0.0129468	0.112618	0.292331
266888351	Fe	0.983067	0.300169	0.191498
266888351	C	0.993363	0.268131	0.23885
266888351	O	0.958078	0.318884	0.187181
266888351	H	0.984471	0.309287	0.331703
266888351	C	0.973654	0.100684	0.196562
266888351	H	0.0101014	0.164529	0.214445
266888351	C	0.046554	0.25797	0.320893
266888351	O	0.0733519	0.256382	0.12243
266888351	H	0.943543	0.260295	0.267645
266888351	H	0.00647275	0.31738	0.128666
266888351	O	0.030716	0.247878	0.213961
266888351	C	0.994631	0.162619	0.272941
266888351	C	0.962861	0.100059	0.216445
266888351	O	0.0443515	0.207901	0.226814
266888351	H	0.0676091	0.236769	0.1746
266888351	O	0.0281398	0.120765	0.183289
266888351	O	0.0675001	0.147881	0.28372
266888351	O	0.943638	0.267971	0.148652
266888351	O	0.0716614	0.206662	0.193199
266888351	O	0.0482096	0.244773	0.104849
266888351	H	0.0557172	0.227475	0.324616
266888351	C	0.9519	0.218782	0.326756
266888351	H	0.0243953	0.181451	0.186775
266888351	C	0.0183353	0.307741	0.127078
266888351	C	0.944859	0.312328	0.337464
266888351	H	0.0676449	0.256106	0.186807
266888351	C	0.944315	0.296435	0.115238
266888351	Fe	0.932005	0.158233	0.250876
266888351	C	0.00545999	0.251221	0.238415
266888351	O	0.00753526	0.283664	0.199762
266888351	H	0.0185248	0.293282	0.202361
266888351	C	0.0818633	0.263466	0.303332
266888351	O	0.0733301	0.18052	0.212819
266888351	H	0.945797	0.283088	0.267214
266888351	Fe	0.987188	0.255392	0.165519
266888351	Fe	0.0445592	0.179493	0.218594
266888351	H	0.0574816	0.161688	0.117126
266888351	H	0.0183698	0.150465	0.255055
266888351	C	0.0489758	0.15872	0.103854
266888351	C	0.0698974	0.280148	0.305281
266888351	O	0.0725474	0.313349	0.317083
266888351	C	0.966935	0.210045	0.23525
266888351	C	0.0156838	0.12387	0.169233
266888351	O	0.984313	0.273081	0.337241
266888351	H	0.0578136	0.144255	0.211823
266888351	C	0.00876591	0.291659	0.158118
266888351	C	0.938407	0.140804	0.292209
266888351	O	0.979285	0.193948	0.23552
266888351	H	0.991493	0.257816	0.286258
266888351	H	0.994995	0.228703	0.190233
266888351	C	0.983194	0.113502	0.158408
266888351	O	0.945637	0.273283	0.212265
266888351	O	0.981284	0.256553	0.296377
266888351	O	0.942974	0.271833	0.276467
266888351	O	0.0230459	0.337483	0.301367
266888351	H	0.96843	0.255772	0.0977429
266888351	C	0.0929075	0.149585	0.163244
266888351	C	0.0918367	0.180896	0.182139
266888351	H	0.911527	0.343412	0.304875
266888351	O	0.890829	0.344492	0.124637
266888351	Fe	0.0765528	0.0947454	0.135909
266888351	O	0.0383753	0.142144	0.344114
266888351	C	0.928831	0.324552	0.0951019
266888351	O	0.0068344	0.331616	0.0955788
266888351	O	0.784724	0.246902	0.403054
266888351	O	0.854629	0.254647	0.415262
266888351	O	0.823235	0.226322	0.420666
266888351	H	0.829678	0.223935	0.407955
266888351	H	0.851957	0.257881	0.400436
266888351	Fe	0.877097	0.108693	0.366621
266888351	O	0.878211	0.11648	0.397076
266888351	C	0.894076	0.114757	0.407903
266888351	O	0.903352	0.124854	0.36285
266888351	O	0.904098	0.285631	0.40514
266888351	Fe	0.889303	0.311154	0.398205
266888351	O	0.90845	0.328513	0.411981
266888351	O	0.86871	0.293868	0.384177
266888351	O	0.875742	0.307651	0.426093
266888351	H	0.873513	0.280994	0.387429
266888351	H	0.871184	0.296173	0.369755
266888351	C	0.796817	0.258014	0.39357
266888351	O	0.813382	0.263564	0.400792
266888351	H	0.857094	0.239739	0.415032
266888351	O	0.909396	0.10596	0.402436
266888351	C	0.791869	0.263288	0.372158
266888351	C	0.803406	0.329514	0.421941
266888351	C	0.820268	0.317567	0.423373
266888351	C	0.837181	0.322223	0.413258
266888351	H	0.847036	0.311208	0.411145
266888351	O	0.890248	0.117993	0.538252
266888351	H	0.90006	0.122601	0.54792
266888351	H	0.890483	0.128309	0.527791
266888351	O	0.797821	0.111972	0.555615
266888351	Fe	0.802032	0.255499	0.576162
266888351	O	0.825198	0.244858	0.559541
266888351	C	0.822183	0.234817	0.543827
266888351	O	0.806625	0.223844	0.541417
266888351	O	0.810025	0.190851	0.568869
266888351	O	0.794746	0.228807	0.581542
266888351	Fe	0.787167	0.210941	0.561629
266888351	O	0.783017	0.255697	0.551687
266888351	O	0.791755	0.250616	0.480381
266888351	C	0.776753	0.240288	0.477831
266888351	Fe	0.776779	0.243125	0.431429
266888351	O	0.791777	0.216082	0.434498
266888351	O	0.838766	0.246597	0.455832
266888351	C	0.836117	0.25505	0.472166
266888351	Fe	0.890066	0.205813	0.460897
266888351	O	0.911274	0.247161	0.465102
266888351	O	0.864431	0.203935	0.442767
266888351	O	0.882395	0.232651	0.470213
266888351	C	0.892319	0.247998	0.469271
266888351	O	0.873172	0.192644	0.483495
266888351	O	0.887956	0.196753	0.512444
266888351	C	0.872792	0.199782	0.501167
266888351	H	0.868161	0.194176	0.432925
266888351	H	0.852748	0.197412	0.449461
266888351	C	0.849235	0.225048	0.489421
266888351	C	0.831435	0.246724	0.509779
266888351	C	0.857639	0.214879	0.505522
266888351	C	0.836551	0.235243	0.527333
266888351	C	0.850425	0.218997	0.524076
266888351	C	0.839353	0.242765	0.490815
266888351	H	0.854029	0.210289	0.536334
266888351	H	0.852685	0.219709	0.475238
266888351	C	0.898616	0.107357	0.442416
266888351	C	0.894363	0.121991	0.428079
266888351	C	0.897423	0.112884	0.462623
266888351	H	0.83279	0.219877	0.430551
266888351	O	0.891094	0.326848	0.448054
266888351	C	0.879656	0.312719	0.444046
266888351	F	0.809751	0.281047	0.571717
266888351	O	0.804399	0.297053	0.445807
266888351	O	0.832121	0.285571	0.433411
266888351	C	0.81845	0.298248	0.433947
266888351	Fe	0.799015	0.274482	0.464041
266888351	O	0.80032	0.257233	0.440264
266888351	Fe	0.827025	0.255784	0.427663
266888351	O	0.797637	0.294293	0.487497
266888351	O	0.827668	0.2718	0.472522
266888351	H	0.79455	0.286202	0.49931
266888351	H	0.785846	0.302358	0.486385
266888351	O	0.910165	0.283303	0.51054
266888351	C	0.898336	0.297642	0.508012
266888351	O	0.90096	0.284748	0.550159
266888351	O	0.918422	0.297451	0.575446
266888351	C	0.900996	0.295758	0.56616
266888351	F	0.918019	0.251267	0.534565
266888351	C	0.875907	0.305743	0.480005
266888351	C	0.879306	0.272218	0.49139
266888351	C	0.875661	0.299484	0.460307
266888351	C	0.882772	0.267506	0.472411
266888351	C	0.878747	0.27963	0.456392
266888351	C	0.881238	0.292594	0.495522
266888351	H	0.880485	0.261122	0.502603
266888351	H	0.88183	0.274619	0.441598
266888351	H	0.789674	0.324584	0.427324
266888351	H	0.819889	0.257265	0.509931
266888351	C	0.868858	0.313855	0.559309
266888351	C	0.882367	0.304549	0.57291
266888351	H	0.790542	0.209504	0.42099
266888351	C	0.893507	0.141513	0.43405
266888351	H	0.873329	0.31668	0.544531
266888351	O	0.903874	0.312933	0.372378
266888351	C	0.772893	0.257396	0.364588
266888351	H	0.875491	0.321715	0.483666
266888351	C	0.851608	0.324123	0.565921
266888351	O	0.787839	0.107928	0.518831
266888351	H	0.803673	0.145824	0.54119
266888351	O	0.791283	0.147683	0.534136
266888351	C	0.798271	0.113243	0.574593
266888351	H	0.819529	0.27874	0.361377
266888351	F	0.863537	0.131528	0.361221
266888351	H	0.894545	0.153615	0.423709
266888351	H	0.793688	0.145202	0.519514
266888351	O	0.903072	0.315078	0.51396
266888351	Fe	0.774338	0.123287	0.540711
266888351	O	0.776565	0.191628	0.539608
266888351	C	0.804708	0.274278	0.358781
266888351	C	0.92131	0.119224	0.359778
266888351	O	0.913323	0.207381	0.480022
266888351	O	0.90286	0.166241	0.482013
266888351	O	0.902901	0.21752	0.437031
266888351	Fe	0.916271	0.187377	0.501127
266888351	C	0.899301	0.165245	0.462713
266888351	O	0.898537	0.180005	0.451556
266888351	O	0.91854	0.166547	0.524748
266888351	H	0.903148	0.250032	0.418775
266888351	C	0.894027	0.146664	0.453943
266888351	C	0.891605	0.131975	0.467859
266888351	C	0.906478	0.10279	0.479319
266888351	C	0.918195	0.246827	0.413025
266888351	C	0.812356	0.182693	0.585527
266888351	C	0.92124	0.317109	0.365682
266888351	O	0.871527	0.334838	0.390923
266888351	O	0.898777	0.104377	0.496516
266888351	H	0.888644	0.134848	0.483192
266888351	O	0.769412	0.280954	0.459943
266888351	C	0.867881	0.132535	0.583392
266888351	C	0.768149	0.244568	0.547121
266888351	C	0.813006	0.12702	0.583243
266888351	C	0.832738	0.122314	0.584078
266888351	O	0.784805	0.105755	0.585041
266888351	O	0.767391	0.238187	0.461006
266888351	H	0.78487	0.253453	0.514101
266888351	O	0.882933	0.146565	0.580453
266888351	C	0.771228	0.246366	0.51213
266888351	C	0.807321	0.14644	0.585067
266888351	C	0.921211	0.217299	0.433371
266888351	C	0.922563	0.281963	0.40223
266888351	C	0.765815	0.23609	0.49517
266888351	H	0.836832	0.107563	0.581469
266888351	C	0.820192	0.161986	0.585986
266888351	C	0.848909	0.3254	0.586364
266888351	C	0.847021	0.137785	0.585361
266888351	H	0.895936	0.139951	0.582008
266888351	Fe	0.926344	0.277132	0.535528
266888351	H	0.909804	0.27962	0.356408
266888351	C	0.840813	0.157723	0.585602
266888351	H	0.792327	0.148553	0.581052
266888351	O	0.872399	0.114713	0.587521
266888351	H	0.788645	0.185984	0.53251
266888351	O	0.924231	0.335523	0.565177
266888351	C	0.842232	0.340646	0.554471
266888351	H	0.932216	0.160409	0.525347
266888351	O	0.777447	0.263753	0.591248
266888351	H	0.850829	0.169771	0.584109
266888351	O	0.92853	0.207853	0.520633
266888351	O	0.761794	0.139146	0.565322
266888351	C	0.0111013	0.0958241	0.397554
266888351	O	0.848519	0.0963749	0.370785
266888351	C	0.84057	0.341527	0.405605
266888351	O	0.0326931	0.300941	0.59224
266888351	H	0.0934245	0.341885	0.529177
266888351	H	0.931671	0.25351	0.497067
266888351	H	0.781439	0.325418	0.461261
266888351	O	0.923427	0.0947914	0.476775
266888351	O	0.78362	0.337599	0.468446
266888351	H	0.941646	0.202301	0.52554
266888351	O	0.927834	0.102836	0.365204
266888351	C	0.990161	0.336013	0.347946
266888351	O	0.768732	0.195015	0.580364
266888351	O	0.929417	0.106001	0.527499
266888351	O	0.952922	0.32354	0.590948
266888351	H	0.761822	0.250729	0.373734
266888351	C	0.928889	0.305652	0.348679
266888351	H	0.786277	0.326282	0.362997
266888351	O	0.02476	0.262448	0.347839
266888351	H	0.91662	0.17341	0.538172
266888351	O	0.00248316	0.343219	0.460417
266888351	H	0.963623	0.33286	0.589797
266888351	C	0.927687	0.228626	0.416202
266888351	C	0.971671	0.136533	0.581699
266888351	C	0.948343	0.257154	0.39501
266888351	H	0.930389	0.329947	0.478531
266888351	C	0.987953	0.315696	0.34484
266888351	H	0.0765852	0.238025	0.518431
266888351	O	0.934776	0.239685	0.501908
266888351	C	0.00590644	0.304567	0.518126
266888351	O	0.0137751	0.20154	0.374409
266888351	C	0.97925	0.182791	0.497188
266888351	C	0.0834752	0.138783	0.354904
266888351	H	0.770734	0.201573	0.529011
266888351	C	0.0861984	0.206579	0.381181
266888351	C	0.955342	0.286436	0.505174
266888351	C	0.00557956	0.325454	0.465379
266888351	O	0.954065	0.142673	0.584616
266888351	O	0.0504123	0.179424	0.504059
266888351	O	0.0250627	0.103099	0.351595
266888351	O	0.995157	0.23228	0.348837
266888351	H	0.0251463	0.324158	0.50406
266888351	O	0.933869	0.304105	0.539249
266888351	H	0.0557005	0.117697	0.389445
266888351	Fe	0.0502868	0.265864	0.537938
266888351	C	0.956952	0.238321	0.399045
266888351	C	0.0232901	0.242247	0.564777
266888351	C	0.0672407	0.206377	0.371623
266888351	O	0.0490241	0.333717	0.575819
266888351	O	0.036402	0.110102	0.547144
266888351	H	0.0908743	0.198631	0.539245
266888351	O	0.0348607	0.287908	0.524841
266888351	F	0.0219868	0.262793	0.388544
266888351	H	0.949437	0.237891	0.505456
266888351	C	0.984603	0.107437	0.526268
266888351	O	0.944194	0.316514	0.435059
266888351	O	0.970806	0.216843	0.376265
266888351	H	0.959287	0.128372	0.36691
266888351	C	0.0522928	0.193712	0.40166
266888351	O	0.966323	0.323722	0.399799
266888351	C	0.98883	0.292277	0.517036
266888351	H	0.0574708	0.334267	0.587636
266888351	O	0.0272843	0.0976058	0.518606
266888351	H	0.0700982	0.206241	0.532026
266888351	Fe	0.0258923	0.127201	0.368438
266888351	H	0.965196	0.177869	0.525977
266888351	O	0.944612	0.179162	0.491648
266888351	C	0.920368	0.286902	0.346222
266888351	C	0.0224577	0.299739	0.532297
266888351	O	0.992489	0.235599	0.392702
266888351	Fe	0.0399629	0.320617	0.436002
266888351	O	0.981105	0.175399	0.361905
266888351	O	0.929789	0.339346	0.490768
266888351	Fe	0.0813706	0.184218	0.505018
266888351	O	0.0391876	0.238059	0.574119
266888351	F	0.0414462	0.293913	0.433499
266888351	O	0.00999602	0.176477	0.564988
266888351	C	0.974671	0.230301	0.389225
266888351	H	0.00897425	0.128086	0.566535
266888351	F	0.0485947	0.254156	0.512769
266888351	C	0.0878217	0.198749	0.400079
266888351	Fe	0.0504416	0.304665	0.566997
266888351	C	0.0780052	0.140042	0.507443
266888351	O	0.0680153	0.167971	0.438222
266888351	O	0.0251398	0.307191	0.549867
266888351	O	0.0837023	0.252913	0.573058
266888351	C	0.959849	0.190162	0.488311
266888351	H	0.987577	0.100415	0.512282
266888351	C	0.0811905	0.300255	0.532678
266888351	C	0.998587	0.182573	0.48807
266888351	Fe	0.93386	0.225402	0.473922
266888351	H	0.000748476	0.187073	0.473456
266888351	O	0.0507302	0.27772	0.564286
266888351	O	0.0777833	0.303679	0.580223
266888351	O	0.96572	0.332983	0.551685
266888351	C	0.0884435	0.105448	0.49797
266888351	C	0.00268741	0.341191	0.363981
266888351	C	0.967932	0.339117	0.533248
266888351	C	0.0159772	0.176778	0.498611
266888351	C	0.094123	0.324981	0.403211
266888351	O	0.0644182	0.141262	0.494328
266888351	C	0.999435	0.308267	0.377489
266888351	C	0.962389	0.123711	0.548865
266888351	O	0.935582	0.295624	0.400383
266888351	H	0.935496	0.305299	0.438131
266888351	C	0.00650347	0.327177	0.379461
266888351	C	0.997775	0.122939	0.556097
266888351	H	0.0669616	0.212423	0.355943
266888351	C	0.0759892	0.332198	0.413484
266888351	H	0.0802909	0.104871	0.484168
266888351	H	0.00559807	0.174387	0.579297
266888351	H	0.987134	0.281552	0.529619
266888351	H	0.995193	0.26521	0.556734
266888351	O	0.94024	0.267267	0.560184
266888351	O	0.934414	0.211875	0.446653
266888351	Fe	0.988107	0.205247	0.355106
266888351	O	0.0787835	0.194348	0.533087
266888351	Fe	0.0665226	0.15483	0.466399
266888351	O	0.952298	0.273607	0.518614
266888351	Fe	0.00938405	0.248396	0.369451
266888351	C	0.980522	0.306198	0.484799
266888351	C	0.0713077	0.191682	0.410097
266888351	H	0.972002	0.304912	0.471114
266888351	C	0.971058	0.257065	0.57562
266888351	H	0.0385674	0.190134	0.410495
266888351	O	0.0187774	0.315417	0.457596
266888351	C	0.990537	0.254718	0.567928
266888351	C	0.0371975	0.176324	0.491574
266888351	C	0.0742223	0.185042	0.432053
266888351	C	0.0605847	0.332675	0.471644
266888351	C	0.0139487	0.175283	0.519681
266888351	H	0.957226	0.310639	0.433746
266888351	H	0.970933	0.333351	0.409456
266888351	H	0.0773072	0.151344	0.36255
266888351	F	0.0505994	0.134532	0.45494
266888351	O	0.0181368	0.112954	0.395352
266888351	O	0.932503	0.329298	0.375013
266888351	C	0.0224315	0.106199	0.534708
266888351	O	0.0847002	0.174823	0.478357
266888351	C	0.975658	0.293324	0.501208
266888351	C	0.00154839	0.111562	0.538688
266888351	O	0.0689854	0.31131	0.542508
266888351	H	0.0350929	0.337217	0.580247
266888351	F	0.953761	0.242698	0.465121
266888351	O	0.0661348	0.24206	0.548926
266888351	C	0.965269	0.243242	0.590204
266888351	O	0.0856691	0.195886	0.442341
266888351	C	0.954416	0.133299	0.352101
266888351	Fe	0.937194	0.324973	0.405075
266888351	H	0.0266475	0.171048	0.529233
266888351	C	0.00365203	0.24028	0.573926
266888351	H	0.973849	0.176699	0.374787
266888351	C	0.994152	0.175908	0.552383
266888351	O	0.0850957	0.15584	0.514755
266888351	Fe	0.943156	0.313612	0.564021
266888351	O	0.0175192	0.321563	0.414307
266888351	C	0.929777	0.261441	0.402872
266888351	C	0.0184903	0.331875	0.398111
266888351	C	0.989737	0.302096	0.359555
266888351	O	0.0763955	0.282049	0.529558
266888351	C	0.0112861	0.316139	0.501544
266888351	C	0.947486	0.10289	0.521581
266888351	C	0.957492	0.271905	0.566691
266888351	C	0.999228	0.228227	0.589955
266888351	O	0.0792089	0.212814	0.494687
266888351	O	0.0273835	0.153948	0.383286
266888351	C	0.998198	0.317389	0.484556
266888351	O	0.0410818	0.171506	0.47375
266888351	O	0.957881	0.208283	0.48312
266888351	C	0.049754	0.200981	0.382178
266888351	O	0.0432913	0.338352	0.477606
266888351	O	0.987324	0.268475	0.369656
266888351	H	0.015636	0.155529	0.39109
266888351	C	0.0881113	0.120959	0.51185
266888351	C	0.97789	0.12795	0.562019
266888351	H	0.0694166	0.120934	0.564657
266888351	H	0.953146	0.209501	0.410938
266888351	O	0.941406	0.298034	0.499059
266888351	O	0.976365	0.174518	0.55971
266888351	O	0.0725315	0.109279	0.572193
266888351	O	0.0243992	0.251774	0.547694
266888351	C	0.94607	0.223861	0.408839
266888351	H	0.0377656	0.149399	0.393012
266888351	C	0.0310548	0.21102	0.375198
266888351	O	0.996975	0.132275	0.361066
266888351	O	0.0624048	0.320274	0.457427
266888351	H	0.96813	0.33106	0.386646
266888351	H	0.957036	0.267353	0.387361
266888351	Fe	0.0561274	0.260357	0.586493
266888351	H	0.00266139	0.297319	0.38755
266888351	O	0.0894597	0.136831	0.462139
266888351	C	0.0832689	0.245898	0.555336
266888351	H	0.0685189	0.114162	0.585441
266888351	C	0.996124	0.176194	0.529296
266888351	H	0.94798	0.126289	0.552942
266888351	C	0.986279	0.279934	0.354884
266888351	C	0.979052	0.178268	0.517726
266888351	H	0.993574	0.169239	0.366025
266888351	C	0.0897977	0.317849	0.384262
266888351	O	0.963059	0.290015	0.565581
266888351	O	0.0622837	0.320094	0.416457
266888351	O	0.962203	0.328521	0.518732
266888351	O	0.0546222	0.121082	0.37533
266888351	O	0.0320829	0.22859	0.369802
266888351	H	0.0747619	0.319362	0.377788
266888351	C	0.965549	0.112174	0.531717
266888351	Fe	0.93267	0.321694	0.516377
266888351	O	0.764626	0.229302	0.556483
266888351	C	0.934459	0.132061	0.346782
266888351	O	0.793273	0.337734	0.358668
266888351	C	0.880111	0.309823	0.593314
266888351	C	0.766134	0.344398	0.47469
266888351	C	0.0924098	0.239398	0.521584
266888351	H	0.836128	0.330911	0.592462
266888351	H	0.0432163	0.096896	0.420535
266888351	H	0.949918	0.243621	0.594564
266888351	O	0.986859	0.141524	0.594561
266888351	Fe	0.906892	0.142131	0.740629
266888351	O	0.882359	0.122785	0.744858
266888351	O	0.890754	0.16658	0.732122
266888351	O	0.881535	0.184151	0.757596
266888351	C	0.890527	0.18297	0.741502
266888351	F	0.910228	0.134602	0.713423
266888351	O	0.78442	0.247238	0.618413
266888351	Fe	0.793979	0.219933	0.608863
266888351	O	0.795709	0.210976	0.638258
266888351	C	0.826537	0.244706	0.613682
266888351	H	0.795346	0.223507	0.646184
266888351	H	0.809149	0.206657	0.640165
266888351	O	0.788764	0.246951	0.709374
266888351	C	0.792511	0.248223	0.727791
266888351	O	0.817252	0.200508	0.677667
266888351	O	0.849252	0.193536	0.669002
266888351	C	0.834299	0.205367	0.669853
266888351	Fe	0.851727	0.169661	0.68662
266888351	O	0.856427	0.144275	0.704797
266888351	O	0.849239	0.123066	0.676748
266888351	O	0.785757	0.149405	0.687731
266888351	O	0.806017	0.124062	0.682102
266888351	C	0.79196	0.132177	0.691655
266888351	O	0.838752	0.185341	0.710825
266888351	Fe	0.802532	0.174275	0.682351
266888351	O	0.826235	0.159234	0.677326
266888351	Fe	0.825472	0.134772	0.66148
266888351	O	0.867227	0.157638	0.665028
266888351	O	0.826019	0.109279	0.645391
266888351	O	0.846541	0.146609	0.641656
266888351	C	0.863196	0.15279	0.647661
266888351	O	0.801184	0.142655	0.643713
266888351	O	0.776685	0.190247	0.688494
266888351	O	0.807538	0.175251	0.712313
266888351	O	0.794056	0.172902	0.652657
266888351	C	0.822299	0.184405	0.719972
266888351	C	0.79002	0.157387	0.643004
266888351	F	0.87475	0.182301	0.696448
266888351	O	0.920162	0.254157	0.655901
266888351	O	0.916682	0.208658	0.640878
266888351	H	0.918484	0.261441	0.715088
266888351	C	0.842393	0.231703	0.64439
266888351	C	0.830012	0.24157	0.676239
266888351	C	0.834085	0.248051	0.634719
266888351	C	0.823873	0.259615	0.668578
266888351	C	0.836791	0.22658	0.664051
266888351	H	0.825847	0.237314	0.691016
266888351	H	0.848071	0.219154	0.635458
266888351	C	0.782764	0.12251	0.708924
266888351	C	0.823068	0.200538	0.754411
266888351	C	0.803765	0.213463	0.727085
266888351	C	0.799256	0.230084	0.738134
266888351	C	0.804918	0.231402	0.757452
266888351	C	0.816904	0.199073	0.734728
266888351	H	0.799232	0.212615	0.71158
266888351	C	0.891182	0.172641	0.634304
266888351	C	0.91069	0.138373	0.623237
266888351	C	0.880407	0.154855	0.633473
266888351	C	0.890562	0.13702	0.628655
266888351	C	0.911063	0.173705	0.630165
266888351	H	0.882553	0.185235	0.63888
266888351	H	0.884877	0.122243	0.633521
266888351	C	0.917973	0.196628	0.719299
266888351	C	0.904842	0.199133	0.735761
266888351	C	0.908271	0.214815	0.749569
266888351	H	0.899256	0.216848	0.762373
266888351	H	0.870525	0.14399	0.707245
266888351	C	0.773932	0.259818	0.609105
266888351	O	0.784988	0.302938	0.744892
266888351	O	0.793988	0.264734	0.735947
266888351	O	0.773327	0.285754	0.707754
266888351	Fe	0.79832	0.289974	0.721015
266888351	O	0.825014	0.294692	0.735512
266888351	O	0.80109	0.315365	0.70622
266888351	O	0.815419	0.275582	0.698311
266888351	O	0.791325	0.272198	0.674866
266888351	C	0.809561	0.270157	0.680782
266888351	H	0.834657	0.29799	0.724454
266888351	H	0.83002	0.281885	0.74
266888351	O	0.905173	0.284133	0.749086
266888351	C	0.91524	0.29416	0.736822
266888351	C	0.904951	0.308642	0.705688
266888351	C	0.913981	0.274407	0.70615
266888351	C	0.901248	0.308851	0.685443
266888351	C	0.912649	0.273216	0.684946
266888351	C	0.905418	0.291115	0.675057
266888351	C	0.91042	0.292222	0.715987
266888351	H	0.902677	0.291222	0.659624
266888351	C	0.826034	0.262486	0.647487
266888351	H	0.818718	0.274714	0.640715
266888351	H	0.777761	0.288036	0.636838
266888351	C	0.869024	0.124847	0.758125
266888351	O	0.862313	0.142127	0.761066
266888351	O	0.907651	0.142753	0.812198
266888351	O	0.876752	0.14179	0.800432
266888351	C	0.889115	0.142143	0.815284
266888351	O	0.904583	0.150301	0.768242
266888351	Fe	0.879651	0.161982	0.778069
266888351	O	0.853691	0.174982	0.788198
266888351	O	0.89447	0.181362	0.7938
266888351	C	0.912582	0.186453	0.795353
266888351	H	0.845294	0.164073	0.7936
266888351	H	0.856278	0.183214	0.799941
266888351	C	0.872437	0.241481	0.823843
266888351	O	0.860451	0.246373	0.80991
266888351	O	0.825396	0.205823	0.798897
266888351	O	0.821875	0.238857	0.793841
266888351	C	0.82227	0.220763	0.787575
266888351	Fe	0.816066	0.207317	0.828543
266888351	O	0.832388	0.230342	0.835339
266888351	Fe	0.83081	0.25331	0.818779
266888351	O	0.798936	0.183882	0.820352
266888351	O	0.794892	0.226439	0.820207
266888351	O	0.912598	0.251387	0.773062
266888351	C	0.897085	0.218388	0.804281
266888351	C	0.891339	0.229359	0.821548
266888351	C	0.91483	0.205964	0.803706
266888351	H	0.885953	0.217118	0.791928
266888351	C	0.817412	0.216909	0.766179
266888351	H	0.798083	0.243529	0.767581
266888351	H	0.833796	0.188764	0.759883
266888351	C	0.881892	0.146662	0.836177
266888351	H	0.853951	0.158142	0.825254
266888351	O	0.829992	0.277546	0.800813
266888351	H	0.833466	0.290812	0.806694
266888351	H	0.817334	0.279746	0.792758
266888351	O	0.898477	0.312416	0.779042
266888351	Fe	0.906985	0.28194	0.778556
266888351	O	0.908848	0.281402	0.81013
266888351	C	0.919254	0.26934	0.819824
266888351	F	0.879744	0.27511	0.781399
266888351	C	0.771753	0.333277	0.795248
266888351	C	0.777083	0.318259	0.782812
266888351	H	0.792464	0.313782	0.781476
266888351	C	0.922152	0.256635	0.674169
266888351	C	0.900635	0.224855	0.838796
266888351	C	0.790678	0.104613	0.71533
266888351	C	0.86602	0.323599	0.599525
266888351	C	0.923056	0.191293	0.637374
266888351	H	0.914746	0.185852	0.707348
266888351	C	0.921015	0.1069	0.762911
266888351	O	0.771303	0.328531	0.70905
266888351	C	0.79071	0.240959	0.831126
266888351	O	0.801945	0.25709	0.82951
266888351	C	0.76997	0.132543	0.72011
266888351	H	0.89265	0.307624	0.602815
266888351	C	0.90851	0.328101	0.778376
266888351	H	0.904437	0.322404	0.713644
266888351	C	0.919719	0.156837	0.623196
266888351	O	0.823247	0.226957	0.608741
266888351	O	0.841833	0.273009	0.838946
266888351	H	0.847056	0.121246	0.794643
266888351	O	0.916274	0.242329	0.613813
266888351	H	0.858469	0.115825	0.667527
266888351	H	0.843907	0.111801	0.685048
266888351	C	0.864042	0.106492	0.770758
266888351	O	0.899054	0.327904	0.656101
266888351	F	0.844789	0.328938	0.793475
266888351	C	0.897275	0.327629	0.674963
266888351	H	0.800297	0.184696	0.805836
266888351	C	0.853847	0.107835	0.789534
266888351	C	0.773401	0.159356	0.627183
266888351	H	0.805012	0.171494	0.824874
266888351	C	0.789199	0.329583	0.70278
266888351	O	0.819789	0.258518	0.601926
266888351	O	0.921269	0.114435	0.780695
266888351	Fe	0.769411	0.262817	0.692741
266888351	C	0.923245	0.120754	0.627752
266888351	O	0.920687	0.103919	0.620397
266888351	O	0.80443	0.190482	0.600477
266888351	H	0.917971	0.257057	0.613372
266888351	H	0.903283	0.239976	0.619947
266888351	H	0.773295	0.129455	0.618037
266888351	C	0.770111	0.106283	0.744468
266888351	O	0.810722	0.335543	0.755996
266888351	C	0.863804	0.157123	0.837191
266888351	C	0.767526	0.302372	0.751305
266888351	O	0.920931	0.117479	0.74736
266888351	C	0.916304	0.212164	0.839194
266888351	O	0.869045	0.248168	0.840705
266888351	H	0.832218	0.110879	0.631715
266888351	Fe	0.925023	0.144095	0.787416
266888351	H	0.772178	0.194852	0.674504
266888351	C	0.925667	0.205548	0.821872
266888351	H	0.812002	0.107656	0.642058
266888351	C	0.871386	0.338399	0.614885
266888351	O	0.842599	0.09877	0.835847
266888351	C	0.766969	0.143449	0.615602
266888351	H	0.868396	0.338389	0.77194
266888351	H	0.915791	0.135825	0.669621
266888351	H	0.767799	0.187719	0.636401
266888351	O	0.927142	0.174497	0.792893
266888351	O	0.927479	0.327463	0.778745
266888351	O	0.837073	0.187665	0.837539
266888351	C	0.764454	0.125206	0.73949
266888351	H	0.958699	0.329927	0.73837
266888351	H	0.845121	0.309571	0.840251
266888351	C	0.762667	0.308122	0.771679
266888351	O	0.765017	0.213092	0.60719
266888351	C	0.763998	0.176976	0.624755
266888351	C	0.925186	0.227065	0.748983
266888351	C	0.927776	0.242649	0.76551
266888351	O	0.92945	0.256747	0.810185
266888351	H	0.763068	0.146216	0.713906
266888351	H	0.767742	0.179375	0.692675
266888351	H	0.959857	0.312583	0.598616
266888351	O	0.805971	0.341795	0.799265
266888351	H	0.800073	0.0966419	0.705354
266888351	C	0.951855	0.313516	0.842622
266888351	C	0.921008	0.271795	0.842429
266888351	H	0.973897	0.301048	0.661136
266888351	H	0.0930896	0.189085	0.724636
266888351	O	0.927255	0.12999	0.677073
266888351	H	0.768619	0.206838	0.842584
266888351	H	0.924827	0.323937	0.619677
266888351	C	0.783256	0.0955142	0.731952
266888351	H	0.766453	0.100644	0.759278
266888351	H	0.0940456	0.233221	0.742576
266888351	C	0.0914029	0.120352	0.780843
266888351	C	0.76296	0.284088	0.634027
266888351	H	0.936998	0.326888	0.639291
266888351	O	0.0578198	0.0949759	0.66435
266888351	H	0.996995	0.325481	0.791322
266888351	H	0.00949313	0.21811	0.597137
266888351	O	0.893146	0.342714	0.68577
266888351	O	0.934719	0.157644	0.739371
266888351	O	0.930346	0.304576	0.741651
266888351	C	9.4496e-05	0.310965	0.644895
266888351	H	0.826586	0.342602	0.694714
266888351	O	0.023546	0.114992	0.813283
266888351	C	0.0795489	0.342002	0.731117
266888351	O	0.0743958	0.343098	0.69587
266888351	H	0.770767	0.242295	0.663356
266888351	C	0.0735524	0.342264	0.766206
266888351	Fe	0.962714	0.242346	0.678083
266888351	O	0.00857637	0.333752	0.787712
266888351	O	0.76666	0.237592	0.676482
266888351	C	0.0393938	0.216134	0.712472
266888351	H	0.00862778	0.117636	0.669275
266888351	H	0.8381	0.341015	0.736697
266888351	C	0.939462	0.222701	0.733048
266888351	O	0.903737	0.0965126	0.658127
266888351	C	0.957786	0.339251	0.81946
266888351	C	0.0902716	0.129598	0.799586
266888351	C	0.0905965	0.314002	0.751117
266888351	C	0.0854291	0.121764	0.742213
266888351	O	0.989753	0.205465	0.671603
266888351	O	0.836536	0.344564	0.829533
266888351	Fe	0.00574379	0.339627	0.7018
266888351	O	0.0484503	0.311889	0.708431
266888351	Fe	0.0157856	0.343917	0.814985
266888351	O	0.889665	0.340924	0.617688
266888351	H	0.0508863	0.177658	0.835411
266888351	Fe	0.0414579	0.203129	0.807873
266888351	H	0.0771614	0.168459	0.657775
266888351	C	0.0894754	0.196461	0.841457
266888351	O	0.94523	0.246799	0.770015
266888351	C	0.975764	0.0947388	0.755983
266888351	C	0.970701	0.159575	0.747302
266888351	O	0.0156483	0.311397	0.703872
266888351	O	0.037978	0.322417	0.814258
266888351	H	0.935538	0.156999	0.620945
266888351	C	0.0766427	0.220174	0.671432
266888351	O	0.963155	0.310821	0.790751
266888351	C	0.0369933	0.101942	0.816539
266888351	C	0.0235523	0.241874	0.815747
266888351	O	0.0826573	0.151509	0.706225
266888351	C	0.949917	0.153869	0.750358
266888351	C	0.070832	0.17908	0.782964
266888351	C	0.0376913	0.282556	0.763292
266888351	H	0.0783422	0.159565	0.751004
266888351	O	0.0122081	0.343364	0.732444
266888351	C	0.977596	0.106936	0.839041
266888351	H	0.980501	0.169116	0.642026
266888351	C	0.988107	0.0982622	0.819687
266888351	O	0.0244577	0.12522	0.767282
266888351	C	0.0201026	0.220757	0.681753
266888351	O	0.0810242	0.118187	0.832045
266888351	C	0.0455982	0.262098	0.766057
266888351	C	0.0161585	0.127036	0.75032
266888351	O	0.0381759	0.185216	0.834591
266888351	O	0.0224797	0.223381	0.821025
266888351	H	0.0350235	0.281454	0.806897
266888351	C	0.00767318	0.29247	0.614703
266888351	O	0.991882	0.238424	0.670861
266888351	C	0.953948	0.319399	0.823675
266888351	H	0.0502383	0.101077	0.62077
266888351	C	0.0379824	0.219601	0.669963
266888351	C	0.0375598	0.277329	0.821858
266888351	C	0.0405763	0.21642	0.734417
266888351	H	0.0738009	0.234122	0.606034
266888351	O	0.982861	0.106014	0.804225
266888351	O	0.086417	0.168173	0.669672
266888351	C	0.974461	0.103181	0.646059
266888351	Fe	0.0629012	0.125812	0.703302
266888351	C	0.936104	0.207349	0.718005
266888351	O	0.937007	0.121971	0.63958
266888351	O	0.976589	0.170139	0.655919
266888351	H	0.0297824	0.111845	0.704519
266888351	O	0.934776	0.247894	0.685197
266888351	H	0.0781679	0.155674	0.814546
266888351	O	0.0536258	0.126813	0.672875
266888351	H	0.979787	0.147388	0.605787
266888351	O	0.979445	0.275555	0.779903
266888351	C	0.984058	0.145921	0.739636
266888351	H	0.00102085	0.309846	0.820887
266888351	H	0.0600135	0.297953	0.663236
266888351	H	0.026083	0.161683	0.762268
266888351	H	0.967125	0.18612	0.765508
266888351	O	0.0694739	0.124506	0.732695
266888351	C	0.0322722	0.11014	0.647263
266888351	H	0.0795187	0.315437	0.782165
266888351	C	0.00376765	0.146113	0.74663
266888351	H	0.0256528	0.318566	0.627162
266888351	C	0.978983	0.228807	0.597901
266888351	O	0.967821	0.290021	0.753329
266888351	C	0.00700316	0.297426	0.739259
266888351	O	0.0682407	0.282459	0.602811
266888351	O	0.0851879	0.225838	0.797197
266888351	H	0.954115	0.230001	0.733447
266888351	C	0.0244684	0.287108	0.601979
266888351	C	0.0308629	0.307463	0.714015
266888351	H	0.93907	0.195739	0.821819
266888351	O	0.964089	0.265979	0.660023
266888351	O	0.0620772	0.256036	0.773356
266888351	H	0.0702512	0.215036	0.707878
266888351	O	0.948989	0.139038	0.806959
266888351	H	0.0440691	0.157054	0.70058
266888351	H	0.988321	0.267021	0.60898
266888351	Fe	0.0207285	0.22887	0.770927
266888351	Fe	0.952147	0.26627	0.792032
266888351	H	0.0512449	0.231739	0.609942
266888351	C	0.0787337	0.321712	0.766885
266888351	H	0.937849	0.139174	0.67395
266888351	C	0.0487314	0.111619	0.662377
266888351	C	0.0813294	0.150156	0.764076
266888351	O	0.940753	0.187068	0.640342
266888351	O	0.000858863	0.32234	0.828884
266888351	C	0.00908326	0.320765	0.662274
266888351	O	0.93068	0.334226	0.628366
266888351	C	0.958138	0.305255	0.808262
266888351	O	0.957153	0.286981	0.812739
266888351	C	0.0565345	0.21722	0.70139
266888351	F	0.980183	0.33118	0.709723
266888351	Fe	0.964167	0.198443	0.657027
266888351	O	0.0406747	0.146355	0.709755
266888351	H	0.944461	0.128731	0.816291
266888351	O	0.979143	0.208199	0.629389
266888351	O	0.0575156	0.220622	0.742649
266888351	C	4.27365e-05	0.221436	0.673239
266888351	H	0.978153	0.138509	0.832987
266888351	Fe	0.00427154	0.114317	0.786897
266888351	F	0.999032	0.240579	0.759549
266888351	H	0.0783094	0.176365	0.678945
266888351	C	0.0431724	0.291732	0.744981
266888351	H	0.950314	0.150953	0.815373
266888351	C	0.998266	0.176235	0.765782
266888351	H	0.959041	0.235754	0.809355
266888351	C	0.982396	0.283429	0.763394
266888351	C	0.0823659	0.148871	0.800507
266888351	H	0.978953	0.132518	0.733726
266888351	O	0.952751	0.224503	0.657176
266888351	H	0.963758	0.16213	0.656557
266888351	O	0.999559	0.33294	0.673035
266888351	O	0.0358653	0.249498	0.75766
266888351	O	0.965301	0.10147	0.629733
266888351	O	0.0435791	0.218367	0.783445
266888351	F	0.972095	0.259833	0.698075
266888351	C	0.982243	0.29955	0.64743
266888351	O	0.0266846	0.315481	0.667173
266888351	C	0.0123818	0.110378	0.654793
266888351	O	0.0904701	0.231992	0.677953
266888351	O	0.949246	0.193184	0.685422
266888351	O	0.0599096	0.181817	0.797924
266888351	H	0.0581221	0.290978	0.739981
266888351	C	0.969717	0.215837	0.614854
266888351	H	0.978971	0.24133	0.798123
266888351	O	0.0848785	0.106973	0.696702
266888351	C	0.0272649	0.298585	0.733459
266888351	O	0.00063039	0.208751	0.781209
266888351	O	0.955537	0.256779	0.629237
266888351	H	0.0422093	0.150859	0.723692
266888351	O	0.074169	0.193551	0.770272
266888351	O	0.0125148	0.111452	0.740591
266888351	O	0.0812549	0.20701	0.658511
266888351	O	0.0204723	0.246176	0.796858
266888351	C	0.0886192	0.322694	0.732311
266888351	F	0.99661	0.139407	0.794358
266888351	C	0.0107106	0.161861	0.75793
266888351	C	0.950549	0.205757	0.700185
266888351	O	0.0680889	0.308347	0.669586
266888351	C	0.996302	0.102554	0.642629
266888351	H	0.0387165	0.220343	0.653884
266888351	Fe	0.947384	0.30811	0.766473
266888351	Fe	0.934247	0.103573	0.663587
266888351	O	0.962666	0.219547	0.699368
266888351	O	0.0621345	0.241449	0.609611
266888351	C	0.00299946	0.28846	0.757759
266888351	O	0.0424312	0.104179	0.704217
266888351	C	0.0184693	0.284083	0.770903
266888351	O	0.935175	0.285506	0.777119
266888351	C	0.990642	0.280687	0.617439
266888351	H	0.0726222	0.300033	0.680518
266888351	C	0.0118729	0.308557	0.627747
266888351	C	0.0320896	0.258099	0.829254
266888351	C	0.00522224	0.190471	0.781976
266888351	Fe	0.0498638	0.329083	0.682138
266888351	O	0.947407	0.144589	0.766991
266888351	O	0.950786	0.216867	0.616139
266888351	C	0.0811219	0.218952	0.813744
266888351	C	0.0360397	0.101992	0.628582
266888351	H	0.994353	0.302072	0.73055
266888351	O	0.063598	0.218953	0.820716
266888351	C	0.0470423	0.291901	0.834157
266888351	O	0.980329	0.110659	0.765588
266888351	O	0.961978	0.332504	0.752083
266888351	O	0.056986	0.326551	0.839831
266888351	C	0.977638	0.175212	0.759917
266888351	Fe	0.935509	0.233504	0.636853
266888351	C	0.978367	0.283995	0.633475
266888351	O	0.0305503	0.268811	0.600949
266888351	O	0.0200695	0.185158	0.793265
266888351	O	0.0239262	0.213635	0.74461
266888351	O	0.964695	0.106595	0.663216
266888351	C	0.0803086	0.159863	0.78178
266888351	C	0.0205653	0.216694	0.702538
266888351	C	0.0560254	0.219303	0.680633
266888351	C	0.0852997	0.12932	0.763298
266888351	Fe	0.0690739	0.22452	0.771248
266888351	C	0.964591	0.268088	0.641458
266888351	H	0.00683129	0.213924	0.709777
266888351	C	0.0479716	0.314534	0.828537
266888351	O	0.96928	0.246463	0.808029
266888351	H	0.0144989	0.276618	0.784585
266888351	H	0.953122	0.343355	0.755476
266888351	C	0.822891	0.34319	0.841902
266888351	C	0.0819618	0.293529	0.595667
266888351	O	0.805613	0.207863	0.856231
266888351	O	0.830012	0.218193	0.87628
266888351	C	0.815301	0.207896	0.872727
266888351	O	0.836888	0.25812	0.866947
266888351	F	0.866354	0.234171	0.880815
266888351	F	0.841118	0.120833	0.873311
266888351	O	0.898149	0.173202	0.900475
266888351	C	0.903137	0.159937	0.888115
266888351	Fe	0.911261	0.20125	0.90307
266888351	O	0.908842	0.204773	0.872443
266888351	F	0.886332	0.212821	0.90542
266888351	C	0.799074	0.178456	0.880992
266888351	C	0.805921	0.195683	0.887662
266888351	C	0.805248	0.200692	0.907969
266888351	H	0.801321	0.173987	0.865898
266888351	H	0.81341	0.214493	0.912195
266888351	C	0.894777	0.147335	0.85319
266888351	C	0.87356	0.17042	0.86921
266888351	C	0.890004	0.158173	0.870424
266888351	H	0.86977	0.180483	0.880649
266888351	O	0.909749	0.327427	0.878055
266888351	O	0.908209	0.306764	0.903345
266888351	C	0.910288	0.309781	0.884945
266888351	C	0.78987	0.30928	0.890705
266888351	O	0.784862	0.292939	0.900456
266888351	C	0.81528	0.329586	0.875111
266888351	C	0.821426	0.294372	0.881415
266888351	C	0.82607	0.328723	0.857671
266888351	C	0.834138	0.29422	0.865395
266888351	C	0.80985	0.311662	0.884529
266888351	H	0.817706	0.280806	0.88878
266888351	C	0.920651	0.273394	0.884046
266888351	C	0.912889	0.287865	0.853009
266888351	C	0.914692	0.290321	0.873251
266888351	O	0.87897	0.128682	0.996084
266888351	C	0.895844	0.135222	0.99913
266888351	O	0.909473	0.123605	0.00497725
266888351	F	0.868225	0.121224	0.956693
266888351	O	0.873481	0.201	0.0771578
266888351	O	0.868421	0.173517	0.0465834
266888351	O	0.904355	0.17166	0.071333
266888351	H	0.853376	0.172861	0.044175
266888351	H	0.875575	0.162732	0.0394284
266888351	C	0.796753	0.11044	0.0640031
266888351	O	0.913954	0.197434	0.934446
266888351	C	0.916303	0.180605	0.943103
266888351	O	0.902688	0.259559	0.980676
266888351	O	0.908389	0.24847	0.0284964
266888351	O	0.823577	0.246532	0.0485614
266888351	O	0.844115	0.192251	0.982811
266888351	O	0.821389	0.214147	0.978882
266888351	C	0.83841	0.209716	0.985302
266888351	Fe	0.795735	0.197423	0.98475
266888351	O	0.818329	0.141202	0.952724
266888351	O	0.801806	0.128807	0.978787
266888351	C	0.807532	0.127395	0.960576
266888351	Fe	0.83069	0.167569	0.96737
266888351	O	0.807886	0.1713	0.984323
266888351	Fe	0.796852	0.150626	0.000523571
266888351	O	0.802562	0.200745	0.0149641
266888351	C	0.798255	0.188251	0.0279788
266888351	O	0.823348	0.145758	0.0151069
266888351	O	0.856398	0.16483	0.95077
266888351	O	0.819725	0.185866	0.94631
266888351	O	0.844308	0.148212	0.987102
266888351	C	0.801744	0.18913	0.941684
266888351	H	0.856888	0.15412	0.991084
266888351	H	0.860171	0.177984	0.947161
266888351	H	0.853568	0.158515	0.937244
266888351	C	0.90441	0.218135	0.0723805
266888351	C	0.902113	0.216387	0.0518822
266888351	H	0.887742	0.215228	0.0459962
266888351	C	0.910357	0.168533	0.00596941
266888351	C	0.901084	0.160925	0.97284
266888351	C	0.912923	0.177013	0.964889
266888351	C	0.90095	0.155269	0.992486
266888351	H	0.893591	0.151623	0.961537
266888351	H	0.91047	0.164175	0.0220333
266888351	C	0.843876	0.228008	0.0163602
266888351	C	0.850241	0.225444	0.996245
266888351	C	0.876319	0.252062	0.000966797
266888351	C	0.866865	0.237049	0.989155
266888351	C	0.852655	0.243449	0.0273429
266888351	H	0.872691	0.234704	0.974226
266888351	H	0.832898	0.218318	0.021406
266888351	C	0.805138	0.106242	0.950758
266888351	H	0.830644	0.107784	0.931475
266888351	C	0.815418	0.197001	0.0608252
266888351	C	0.797829	0.193143	0.0500566
266888351	H	0.829072	0.198453	0.0530656
266888351	H	0.826434	0.158007	0.0216999
266888351	H	0.848532	0.137478	0.977281
266888351	O	0.876473	0.323024	0.928553
266888351	Fe	0.90792	0.322511	0.928205
266888351	O	0.907859	0.294342	0.940346
266888351	O	0.903985	0.331936	0.955314
266888351	H	0.901199	0.294154	0.95295
266888351	O	0.784559	0.305652	0.93821
266888351	C	0.790921	0.323685	0.93927
266888351	O	0.77405	0.264804	0.932356
266888351	O	0.900137	0.280203	0.00461647
266888351	C	0.892416	0.26585	0.994301
266888351	F	0.903532	0.286282	0.0438629
266888351	O	0.845272	0.270497	0.048486
266888351	C	0.840753	0.253573	0.0430265
266888351	Fe	0.80353	0.268108	0.0576708
266888351	Fe	0.837686	0.294157	0.032971
266888351	O	0.809928	0.283354	0.0336667
266888351	Fe	0.788417	0.292158	0.0182344
266888351	O	0.77982	0.252792	0.0432388
266888351	O	0.789432	0.267222	0.998679
266888351	O	0.866965	0.303336	0.0335147
266888351	O	0.840471	0.279155	0.00620201
266888351	H	0.848748	0.286487	0.995517
266888351	C	0.869562	0.25376	0.0201488
266888351	H	0.873542	0.265864	0.0301759
266888351	C	0.830603	0.3276	0.940227
266888351	H	0.827685	0.275628	0.999248
266888351	C	0.913981	0.230959	0.0232651
266888351	O	0.919905	0.15086	0.889945
266888351	O	0.776949	0.321853	0.884246
266888351	H	0.871157	0.306719	0.019857
266888351	C	0.810889	0.328629	0.949542
266888351	C	0.836564	0.310928	0.853788
266888351	C	0.91806	0.21784	0.0390028
266888351	C	0.83786	0.274443	0.857395
266888351	H	0.864594	0.316383	0.0395352
266888351	C	0.847777	0.33155	0.951445
266888351	C	0.796248	0.188351	0.921236
266888351	C	0.786641	0.167325	0.892962
266888351	O	0.791715	0.170688	0.0235557
266888351	O	0.786726	0.314116	0.0390416
266888351	H	0.910406	0.139777	0.0564049
266888351	C	0.914278	0.128549	0.0658136
266888351	C	0.810877	0.331945	0.970419
266888351	H	0.897844	0.286452	0.933444
266888351	Fe	0.874424	0.171416	0.077478
266888351	O	0.788599	0.192143	0.95528
266888351	O	0.874561	0.141193	0.0737171
266888351	H	0.906966	0.177606	0.0575392
266888351	O	0.832644	0.319121	0.0165387
266888351	O	0.918235	0.165026	0.932056
266888351	O	0.83327	0.309004	0.060059
266888351	Fe	0.849225	0.232893	0.858745
266888351	C	0.823128	0.317508	0.000364635
266888351	C	0.816799	0.193648	0.0817138
266888351	O	0.807626	0.30669	0.999284
266888351	C	0.782628	0.182383	0.0804867
266888351	C	0.780831	0.188404	0.0609655
266888351	C	0.785356	0.171855	0.91384
266888351	O	0.843998	0.172024	0.0823206
266888351	F	0.782116	0.221357	0.984066
266888351	O	0.786413	0.12682	0.0631865
266888351	C	0.921933	0.205009	0.858213
266888351	C	0.881872	0.129073	0.0854138
266888351	C	0.867075	0.335701	0.940821
266888351	C	0.846082	0.330632	0.972834
266888351	C	0.900673	0.119986	0.080405
266888351	H	0.783132	0.271349	0.986231
266888351	F	0.7963	0.254243	0.0810541
266888351	O	0.823393	0.281947	0.0764149
266888351	C	0.775603	0.325725	0.0706968
266888351	O	0.784861	0.292042	0.0651579
266888351	O	0.784563	0.127916	0.0174783
266888351	C	0.828789	0.300099	0.076576
266888351	C	0.862413	0.171516	0.85145
266888351	O	0.769677	0.155626	0.987769
266888351	C	0.784034	0.309583	0.0576221
266888351	H	0.776475	0.163356	0.924359
266888351	C	0.769663	0.15896	0.882881
266888351	O	0.768523	0.187413	0.994485
266888351	O	0.90445	0.103959	0.969336
266888351	O	0.846594	0.105609	0.991294
266888351	H	0.778801	0.268104	0.857782
266888351	O	0.804945	0.101508	0.868419
266888351	C	0.802382	0.101786	0.0435611
266888351	Fe	0.874472	0.104597	0.978634
266888351	C	0.771419	0.254076	0.860774
266888351	C	0.887567	0.211403	0.084371
266888351	Fe	0.921063	0.275261	0.0254096
266888351	H	0.896609	0.232841	0.851221
266888351	O	0.895111	0.332676	0.0506183
266888351	H	0.767676	0.115743	0.881425
266888351	C	0.770389	0.165901	0.088259
266888351	H	0.908446	0.139351	0.853112
266888351	H	0.76714	0.184296	0.053077
266888351	O	0.766138	0.162906	0.864545
266888351	H	0.912966	0.179043	0.0804689
266888351	H	0.850465	0.332066	0.0827562
266888351	C	0.82029	0.103461	0.0319407
266888351	H	0.833367	0.110604	0.0385028
266888351	C	0.828006	0.327966	0.981684
266888351	O	0.92104	0.230521	0.901137
266888351	H	0.859192	0.328421	0.982511
266888351	H	0.83229	0.323826	0.924909
266888351	C	0.836286	0.187047	0.090478
266888351	H	0.778656	0.136195	0.0280257
266888351	H	0.920727	0.273776	0.900079
266888351	O	0.922385	0.331997	0.0792061
266888351	O	0.765374	0.281124	0.0346498
266888351	O	0.860748	0.205431	0.854135
266888351	C	0.907039	0.103803	0.0914263
266888351	O	0.779713	0.338113	0.935516
266888351	H	0.771913	0.126103	0.00997426
266888351	O	0.920811	0.229346	0.961708
266888351	H	0.910498	0.219545	0.966271
266888351	H	0.925704	0.302718	0.974747
266888351	H	0.763931	0.258104	0.940449
266888351	H	0.796507	0.330117	0.976888
266888351	C	0.800279	0.186158	0.0912741
266888351	H	0.785604	0.26689	0.941753
266888351	C	0.922709	0.218649	0.0806642
266888351	C	0.819203	0.0981248	0.936815
266888351	O	0.91999	0.226028	0.00605391
266888351	H	0.906321	0.323798	0.0489637
266888351	C	0.780539	0.325189	0.0904202
266888351	O	0.794736	0.0982293	0.079008
266888351	C	0.085313	0.343205	0.964291
266888351	O	0.887098	0.104967	0.0387965
266888351	H	0.87964	0.115933	0.033831
266888351	C	0.764597	0.263527	0.0418489
266888351	O	0.0849083	0.226758	0.0924432
266888351	O	0.766044	0.304695	6.70555e-05
266888351	C	0.929192	0.255927	0.87521
266888351	C	0.970583	0.341295	0.853072
266888351	C	0.853047	0.189304	0.84756
266888351	Fe	0.762592	0.290391	0.921314
266888351	H	0.779467	0.098638	0.9683
266888351	C	0.775541	0.238555	0.847948
266888351	C	0.930117	0.256728	0.85436
266888351	O	0.945609	0.341478	0.899517
266888351	H	0.997255	0.0973257	0.96371
266888351	C	0.926519	0.097055	0.0903237
266888351	C	0.981053	0.096207	0.965614
266888351	C	0.926461	0.17907	0.999523
266888351	C	0.765249	0.220296	0.851222
266888351	C	0.92585	0.186309	0.979901
266888351	H	0.0782023	0.322718	0.913184
266888351	C	0.0224191	0.320316	0.0927403
266888351	C	0.094173	0.254015	0.927211
266888351	O	0.0916647	0.270482	0.919373
266888351	C	0.0414102	0.174908	0.0915966
266888351	O	0.961196	0.171028	0.867838
266888351	O	0.981539	0.102505	0.0086018
266888351	C	0.761545	0.101215	0.877709
266888351	O	0.0811363	0.0958816	0.872794
266888351	C	0.91891	0.341288	0.96102
266888351	O	0.88344	0.338628	0.0914823
266888351	O	0.00668919	0.341485	0.956043
266888351	C	0.976884	0.128758	0.84504
266888351	C	0.791654	0.0952895	0.856353
266888351	H	0.00471842	0.26011	0.0270173
266888351	O	0.0509868	0.230851	0.956324
266888351	H	0.914241	0.238652	0.952949
266888351	H	0.0779414	0.332501	0.870031
266888351	H	0.938002	0.245308	0.846388
266888351	C	0.99933	0.0973734	0.0134165
266888351	C	0.939608	0.219652	0.0686439
266888351	H	0.0935227	0.162954	0.0865629
266888351	O	0.0739808	0.232385	0.0527761
266888351	C	0.00170363	0.230107	0.95019
266888351	Fe	0.0934323	0.199813	0.0865792
266888351	O	0.929371	0.0981842	0.0342002
266888351	H	0.069053	0.310286	0.0837281
266888351	O	0.0231819	0.298847	0.947135
266888351	H	0.0196979	0.0951376	0.923287
266888351	C	0.0525293	0.193391	0.0912076
266888351	F	0.0352602	0.332231	0.0371361
266888351	O	0.0434265	0.307287	0.922777
266888351	C	0.954781	0.268057	0.0569719
266888351	O	0.943787	0.150896	0.011665
266888351	Fe	0.0409794	0.278054	0.961201
266888351	C	0.971843	0.117361	0.879502
266888351	O	0.958205	0.120274	0.0400444
266888351	C	0.0846075	0.310886	0.0803449
266888351	Fe	0.969858	0.266292	0.0126063
266888351	O	0.00318012	0.343738	0.0576984
266888351	C	0.980405	0.131317	0.975263
266888351	O	0.0629554	0.297985	0.970908
266888351	H	0.0798876	0.203325	0.851834
266888351	O	0.954165	0.15055	0.0498093
266888351	O	0.0188517	0.159869	0.940886
266888351	C	0.0630678	0.211515	0.0257785
266888351	O	0.940664	0.201268	0.858765
266888351	Fe	0.0780922	0.12362	0.862554
266888351	H	0.966209	0.190751	0.968597
266888351	C	0.994686	0.216026	0.93644
266888351	H	0.95822	0.132458	0.92659
266888351	O	0.940479	0.263492	0.00762796
266888351	H	0.989558	0.213044	0.876449
266888351	C	0.0474654	0.197108	0.0253278
266888351	H	0.047243	0.147342	0.918674
266888351	H	0.00122802	0.242267	0.978409
266888351	C	0.953669	0.309015	0.0231012
266888351	O	0.958848	0.29372	0.880423
266888351	F	0.0509726	0.121297	0.860927
266888351	H	0.0331987	0.338245	0.911206
266888351	C	0.0361739	0.254382	0.849686
266888351	H	0.0687492	0.166159	0.976361
266888351	C	0.0533882	0.286081	0.853319
266888351	C	0.959297	0.22211	0.0784322
266888351	O	0.0344449	0.323786	0.0790159
266888351	C	0.0166916	0.336924	0.912078
266888351	Fe	0.940391	0.161413	0.911514
266888351	Fe	0.0521907	0.242594	0.926073
266888351	O	0.964285	0.15365	0.894622
266888351	C	0.965632	0.15469	0.875829
266888351	O	0.999416	0.130987	0.9795
266888351	H	0.0057598	0.165046	0.945735
266888351	H	0.00366572	0.282296	0.0211904
266888351	H	0.0339497	0.238667	0.0553086
266888351	O	0.0318736	0.180286	0.964208
266888351	C	0.971412	0.189547	0.926571
266888351	F	0.944113	0.112073	0.00377772
266888351	C	0.974515	0.311779	0.967288
266888351	H	0.0259136	0.210773	0.980753
266888351	C	0.970602	0.308632	0.872719
266888351	H	0.956067	0.101108	0.0769585
266888351	C	0.0341839	0.195541	0.00839657
266888351	O	0.959787	0.175294	0.931296
266888351	H	0.975479	0.222393	0.859441
266888351	C	0.048192	0.267777	0.86196
266888351	H	0.0417801	0.285067	0.0887422
266888351	Fe	0.963781	0.128019	0.0114228
266888351	C	0.93878	0.310853	0.971417
266888351	H	0.980456	0.329806	0.999758
266888351	O	0.0739885	0.265836	0.0789659
266888351	C	0.972375	0.331856	0.962518
266888351	O	0.0659315	0.334358	0.877692
266888351	O	0.974635	0.226896	0.0678296
266888351	O	0.941	0.321572	0.926454
266888351	O	0.980765	0.210379	0.865108
266888351	O	0.0537965	0.270312	0.935812
266888351	F	0.0291142	0.28201	0.985517
266888351	O	0.93732	0.270798	0.0500677
266888351	C	0.982733	0.21663	0.977039
266888351	C	0.0650603	0.224169	0.00956718
266888351	C	0.970213	0.226867	0.991011
266888351	H	0.0376495	0.121663	0.0713809
266888351	C	0.95696	0.30024	0.969103
266888351	O	0.968968	0.26306	0.0446639
266888351	C	0.971083	0.133879	0.865754
266888351	H	0.942574	0.12376	0.914453
266888351	O	0.0496116	0.24911	0.894714
266888351	C	0.0262877	0.308138	0.931115
266888351	O	0.97549	0.194952	0.908374
266888351	C	0.961372	0.329685	0.0265645
266888351	O	0.953792	0.230508	0.983553
266888351	H	0.0350472	0.132705	0.981199
266888351	O	0.011914	0.110888	0.0177452
266888351	O	0.9722	0.271814	0.982826
266888351	C	0.937098	0.331413	0.967216
266888351	O	0.969374	0.140792	0.986333
266888351	O	0.0741642	0.152719	0.854968
266888351	H	0.047093	0.144353	0.998168
266888351	Fe	0.957711	0.198713	0.882652
266888351	C	0.971228	0.113995	0.965837
266888351	O	0.935317	0.303939	0.0234334
266888351	C	0.0836696	0.133021	0.90763
266888351	C	0.00970492	0.319959	0.922442
266888351	C	0.0527569	0.223065	0.992039
266888351	C	0.971717	0.098584	0.872973
266888351	H	0.937187	0.197271	0.975747
266888351	H	0.0303673	0.32036	0.984803
266888351	H	0.0626028	0.206734	0.925426
266888351	H	0.032963	0.313853	0.878958
266888351	H	0.949654	0.223349	0.0385175
266888351	C	0.0544605	0.237573	0.973752
266888351	C	0.028905	0.171361	0.0763581
266888351	H	0.99862	0.217813	0.921561
266888351	H	0.970686	0.119426	0.895601
266888351	O	0.0405831	0.327293	0.977446
266888351	H	0.959786	0.329094	0.0588451
266888351	C	0.975567	0.330544	0.913692
266888351	C	0.949288	0.113128	0.964392
266888351	C	0.957687	0.278621	0.972535
266888351	C	0.0162223	0.148628	0.0520987
266888351	H	0.0588368	0.297925	0.862501
266888351	O	0.0813396	0.240775	0.926904
266888351	O	0.00553174	0.182754	0.025042
266888351	Fe	0.0115576	0.13936	0.00762854
266888351	H	0.021397	0.183669	0.0692963
266888351	H	0.970628	0.181574	0.0673607
266888351	O	0.0476466	0.209762	0.0819215
266888351	C	0.0521678	0.265604	0.885273
266888351	C	0.0288275	0.151662	0.0691252
266888351	O	0.0831697	0.311033	0.905247
266888351	C	0.0340513	0.166549	0.951885
266888351	O	0.0532623	0.213542	0.915705
266888351	O	0.976358	0.23552	0.00723949
266888351	Fe	0.0617862	0.238008	0.0798274
266888351	O	0.937385	0.188321	0.898721
266888351	O	0.988001	0.310574	0.879127
266888351	H	0.988125	0.192155	0.0599252
266888351	C	0.0141575	0.245736	0.943055
266888351	O	0.0794855	0.200877	0.0580388
266888351	O	0.951257	0.228605	0.88884
266888351	O	0.0246517	0.321985	0.869206
266888351	O	0.0229828	0.244445	0.926188
266888351	C	0.988659	0.316835	0.923049
266888351	C	0.0870239	0.146514	0.961421
266888351	C	0.963015	0.322021	0.857128
266888351	C	0.0165375	0.181324	0.0100368
266888351	O	0.0575535	0.281029	0.895227
266888351	C	0.956787	0.278221	0.0776406
266888351	C	0.0918668	0.330114	0.0760547
266888351	C	0.940626	0.10669	0.078109
266888351	O	0.0359564	0.248005	0.0656194
266888351	C	0.934323	0.237343	0.889115
266888351	H	0.943233	0.303416	0.0645869
266888351	O	0.0562649	0.256446	0.97596
266888351	C	0.0775769	0.306145	0.963262
266888351	C	0.982401	0.200624	0.9426
266888351	C	0.0764366	0.137275	0.928365
266888351	C	0.0580184	0.147992	0.930868
266888351	C	0.0893937	0.134668	0.944064
266888351	C	0.975963	0.201539	0.963096
266888351	H	0.0233885	0.312295	0.858002
266888351	C	0.995892	0.229598	0.969532
266888351	H	0.940221	0.125825	0.967106
266888351	C	0.0861148	0.324064	0.973741
266888351	O	0.985477	0.143372	0.0190685
266888351	Fe	0.979548	0.166435	0.0353592
266888351	C	0.0538904	0.156754	0.949326
266888351	O	0.974345	0.189592	0.0556968
266888351	O	0.0142061	0.167379	0.997876
266888351	O	0.024766	0.147196	0.0351548
266888351	H	0.98886	0.305495	0.967685
266888351	C	0.0907708	0.273858	0.0843598
266888351	H	0.0299864	0.241313	0.85635
266888351	C	0.945335	0.16965	0.00877371
266888351	C	0.936885	0.219897	0.048198
266888351	C	0.952452	0.32994	0.913066
266888351	H	0.0239414	0.245104	0.0742903
266888351	O	0.960477	0.179272	0.0142247
266888351	O	0.0195486	0.257819	0.956495
266888351	C	0.949846	0.132373	0.0519634
266888351	C	0.962212	0.338468	0.0463647
266888351	C	0.934342	0.123611	0.0662983
266888351	Fe	0.0677469	0.289748	0.921387
266888351	H	0.0463915	0.185874	0.0365738
266888351	H	0.075027	0.237289	0.0103116
266888351	C	0.038123	0.135839	0.0784038
266888351	C	0.975873	0.338226	0.013255
266888351	O	0.000383677	0.269114	0.016234
266888351	C	0.0731854	0.214746	0.0465082
266888351	C	0.0369421	0.209077	0.992635
266888351	O	0.967071	0.296593	0.0177984
266888351	O	0.0387788	0.132669	0.995691
266888351	C	0.947716	0.296722	0.0785785
266888351	O	0.944211	0.13377	0.924591
266888351	O	0.998037	0.153288	0.0555279
266888351	O	0.0724795	0.132043	0.893067
266888351	Fe	0.930346	0.24646	0.985527
266888351	H	0.0509761	0.328587	0.987948
266888351	O	0.0830248	0.301938	0.945799
266888351	O	0.943825	0.267025	0.967199
266888351	C	0.0874896	0.165019	0.860539
266888351	H	0.96631	0.2873	0.891361
266888351	H	0.982314	0.304672	0.929472
266888351	H	0.0401322	0.208104	0.917187
266888351	C	0.0699455	0.158558	0.962882
266888351	C	0.954218	0.341462	0.962487
266888351	H	0.805132	0.341862	0.877813
266888351	H	0.892981	0.340685	0.0385188
266888351	H	0.0807995	0.343235	0.948718
266888351	Fe	0.0440921	0.344115	0.859696
266888351	H	0.906265	0.299686	0.845045
266888351	H	0.949511	0.298461	0.845143
266888351	H	0.039509	0.195418	0.845523
266888351	O	0.887617	0.394516	0.124425
266888351	C	0.899434	0.395132	0.138806
266888351	O	0.914296	0.384157	0.137728
266888351	O	0.818811	0.399339	0.221334
266888351	O	0.804166	0.410435	0.195251
266888351	C	0.802966	0.40218	0.211663
266888351	Fe	0.830524	0.419688	0.239701
266888351	O	0.830308	0.399013	0.261478
266888351	O	0.801479	0.428706	0.247327
266888351	O	0.859703	0.411596	0.235274
266888351	H	0.803335	0.443153	0.251286
266888351	C	0.874611	0.423485	0.23298
266888351	H	0.828149	0.406243	0.273694
266888351	H	0.844996	0.396881	0.262432
266888351	C	0.916477	0.420924	0.162146
266888351	C	0.899378	0.410864	0.154924
266888351	C	0.880935	0.416851	0.161069
266888351	H	0.867579	0.408995	0.156137
266888351	C	0.894143	0.425082	0.263029
266888351	C	0.912476	0.419247	0.231368
266888351	C	0.893757	0.419681	0.242542
266888351	H	0.911674	0.418104	0.215783
266888351	C	0.783014	0.396843	0.220224
266888351	O	0.817825	0.508601	0.141981
266888351	O	0.812924	0.485423	0.119529
266888351	C	0.824698	0.495289	0.131025
266888351	Fe	0.783595	0.495182	0.115119
266888351	O	0.799837	0.564436	0.120799
266888351	Fe	0.80814	0.535807	0.129885
266888351	O	0.794075	0.521463	0.10871
266888351	O	0.823573	0.550029	0.151942
266888351	O	0.833559	0.536429	0.113339
266888351	H	0.825557	0.540688	0.162916
266888351	H	0.812113	0.559068	0.155875
266888351	O	0.915454	0.539586	0.126822
266888351	O	0.897548	0.56719	0.120294
266888351	C	0.903655	0.549938	0.115668
266888351	O	0.912724	0.567399	0.159613
266888351	Fe	0.885853	0.57375	0.146673
266888351	O	0.877311	0.543115	0.147843
266888351	O	0.898833	0.526851	0.166438
266888351	C	0.884021	0.526847	0.154966
266888351	O	0.846381	0.552795	0.231306
266888351	C	0.861672	0.562214	0.228304
266888351	O	0.806774	0.545315	0.234225
266888351	Fe	0.816094	0.438078	0.191153
266888351	O	0.821483	0.467383	0.184674
266888351	C	0.819897	0.480537	0.197973
266888351	O	0.830478	0.479225	0.212779
266888351	O	0.840524	0.438224	0.261563
266888351	O	0.8428	0.466734	0.245591
266888351	C	0.840299	0.456817	0.260971
266888351	O	0.788588	0.448426	0.202601
266888351	O	0.83006	0.439575	0.217864
266888351	Fe	0.850981	0.460455	0.218407
266888351	O	0.842774	0.428717	0.179698
266888351	O	0.872322	0.482242	0.218054
266888351	O	0.857868	0.456621	0.188937
266888351	C	0.858201	0.43936	0.180599
266888351	O	0.872481	0.44067	0.225836
266888351	H	0.884159	0.476255	0.21275
266888351	H	0.867941	0.492787	0.209404
266888351	F	0.803964	0.436721	0.165618
266888351	O	0.880629	0.380697	0.265481
266888351	O	0.904538	0.486252	0.250693
266888351	H	0.907088	0.497782	0.24252
266888351	H	0.891289	0.480115	0.247893
266888351	C	0.80548	0.512375	0.211154
266888351	C	0.804788	0.4964	0.197274
266888351	H	0.816421	0.51307	0.223044
266888351	H	0.804378	0.473557	0.262051
266888351	C	0.894256	0.552139	0.217566
266888351	C	0.886201	0.55107	0.252473
266888351	C	0.90579	0.545943	0.257205
266888351	C	0.880641	0.553333	0.232891
266888351	C	0.895842	0.443077	0.181463
266888351	C	0.878858	0.432925	0.174597
266888351	C	0.91536	0.436389	0.176306
266888351	H	0.895821	0.454263	0.192425
266888351	C	0.887542	0.501856	0.129481
266888351	C	0.857563	0.489655	0.113917
266888351	C	0.876367	0.508644	0.145692
266888351	C	0.846732	0.493793	0.13137
266888351	C	0.856796	0.502678	0.147598
266888351	C	0.877552	0.495255	0.112557
266888351	H	0.849573	0.507384	0.161127
266888351	H	0.902614	0.504311	0.127717
266888351	H	0.868039	0.534543	0.116707
266888351	H	0.799137	0.421794	0.260284
266888351	O	0.795758	0.381807	0.265306
266888351	O	0.811013	0.367384	0.303339
266888351	C	0.824509	0.358284	0.312624
266888351	H	0.853705	0.375425	0.289821
266888351	H	0.880255	0.428823	0.269062
266888351	Fe	0.825872	0.564726	0.249491
266888351	F	0.831076	0.544182	0.267168
266888351	O	0.780067	0.506858	0.302312
266888351	C	0.786887	0.496695	0.287914
266888351	Fe	0.897446	0.519407	0.32073
266888351	O	0.899988	0.53697	0.294195
266888351	C	0.908769	0.533956	0.276779
266888351	O	0.918049	0.517924	0.27453
266888351	Fe	0.922435	0.47553	0.324016
266888351	O	0.909711	0.4961	0.308023
266888351	Fe	0.907357	0.491823	0.279944
266888351	O	0.869715	0.511625	0.310874
266888351	O	0.877336	0.503194	0.279415
266888351	C	0.86438	0.50674	0.293291
266888351	O	0.89652	0.463522	0.284704
266888351	O	0.919352	0.451082	0.303823
266888351	C	0.908982	0.449511	0.287814
266888351	F	0.886582	0.541611	0.332677
266888351	C	0.825346	0.50597	0.291708
266888351	C	0.814516	0.477759	0.274184
266888351	C	0.84445	0.497338	0.292143
266888351	C	0.831965	0.467625	0.277874
266888351	C	0.845719	0.476019	0.290183
266888351	C	0.809012	0.494333	0.284922
266888351	H	0.859652	0.468057	0.288729
266888351	H	0.823806	0.521075	0.297593
266888351	H	0.875167	0.55397	0.263776
266888351	C	0.912003	0.433389	0.27101
266888351	C	0.854101	0.359405	0.289083
266888351	Fe	0.794306	0.355212	0.281449
266888351	O	0.896511	0.471226	0.339751
266888351	C	0.913867	0.549316	0.221097
266888351	O	0.924748	0.527698	0.334395
266888351	C	0.919576	0.545173	0.241262
266888351	H	0.786355	0.366432	0.215475
266888351	H	0.889875	0.556317	0.202495
266888351	O	0.775836	0.359151	0.326981
266888351	C	0.872168	0.537825	0.102494
266888351	O	0.847247	0.580813	0.265075
266888351	O	0.805895	0.575327	0.269313
266888351	H	0.911602	0.442578	0.117651
266888351	O	0.921664	0.43918	0.106474
266888351	C	0.788923	0.570656	0.106984
266888351	C	0.776564	0.377582	0.220382
266888351	H	0.796304	0.450588	0.290321
266888351	H	0.792759	0.461342	0.310134
266888351	C	0.79227	0.528606	0.207528
266888351	C	0.787743	0.575562	0.2663
266888351	C	0.7963	0.546648	0.218529
266888351	O	0.782636	0.534979	0.14775
266888351	H	0.792734	0.454195	0.214896
266888351	O	0.77654	0.48574	0.276776
266888351	O	0.786992	0.451635	0.301499
266888351	Fe	0.918493	0.359666	0.120601
266888351	O	0.789357	0.562184	0.21206
266888351	C	0.781862	0.572053	0.3027
266888351	C	0.774909	0.572101	0.283605
266888351	F	0.773619	0.469426	0.120176
266888351	C	0.769224	0.411898	0.225452
266888351	O	0.778889	0.501998	0.144306
266888351	O	0.780189	0.578645	0.249066
266888351	H	0.921247	0.404608	0.328248
266888351	C	0.778481	0.517792	0.155074
266888351	O	0.858468	0.578936	0.13274
266888351	C	0.791082	0.496785	0.182333
266888351	C	0.779358	0.513451	0.176895
266888351	H	0.789953	0.484953	0.172498
266888351	C	0.779196	0.529067	0.190609
266888351	C	0.874782	0.363481	0.25971
266888351	H	0.796006	0.392412	0.275258
266888351	O	0.768389	0.439861	0.332842
266888351	H	0.773796	0.427128	0.225255
266888351	H	0.798124	0.573916	0.305058
266888351	H	0.771859	0.54282	0.187949
266888351	O	0.820014	0.584689	0.23127
266888351	C	0.892549	0.54185	0.0984832
266888351	H	0.78203	0.382473	0.261555
266888351	H	0.824056	0.359803	0.260496
266888351	H	0.851226	0.483712	0.0999002
266888351	H	0.863837	0.584008	0.2982
266888351	H	0.885149	0.367895	0.235084
266888351	C	0.777079	0.576578	0.339198
266888351	O	0.863239	0.581213	0.225677
266888351	O	0.769884	0.446035	0.26142
266888351	O	0.907218	0.369201	0.0952171
266888351	Fe	0.923498	0.54031	0.158003
266888351	O	0.875009	0.58193	0.336199
266888351	O	0.768089	0.364357	0.294965
266888351	H	0.776578	0.378598	0.150474
266888351	O	0.798055	0.350981	0.172757
266888351	O	0.927999	0.40286	0.104483
266888351	C	0.769467	0.573176	0.318457
266888351	H	0.919266	0.349888	0.326199
266888351	C	0.0873344	0.417252	0.342548
266888351	Fe	0.792429	0.589777	0.224061
266888351	C	0.7654	0.367233	0.313853
266888351	H	0.984731	0.345089	0.123597
266888351	O	0.777916	0.345297	0.258417
266888351	O	0.878502	0.356461	0.240858
266888351	C	0.0132617	0.462095	0.124404
266888351	H	0.0459219	0.409081	0.341098
266888351	O	0.930665	0.348334	0.146663
266888351	O	0.818525	0.35152	0.329266
266888351	H	0.861202	0.581772	0.118397
266888351	F	0.057569	0.345961	0.335372
266888351	O	0.819077	0.346742	0.266436
266888351	O	0.837059	0.592681	0.192701
266888351	H	0.766836	0.455884	0.251233
266888351	O	0.962533	0.401297	0.170118
266888351	O	0.90108	0.473579	0.0974145
266888351	C	0.926603	0.552901	0.203182
266888351	O	0.0289545	0.592873	0.289857
266888351	C	0.863971	0.350544	0.273513
266888351	C	0.84218	0.348326	0.302018
266888351	O	0.936216	0.457844	0.343971
266888351	O	0.927278	0.57165	0.198916
266888351	O	0.930323	0.540132	0.189834
266888351	Fe	0.928044	0.588748	0.17238
266888351	O	0.945129	0.476276	0.239235
266888351	C	0.780446	0.591174	0.108902
266888351	F	0.890599	0.421793	0.0987867
266888351	O	0.797295	0.578455	0.342407
266888351	H	0.796043	0.593111	0.187068
266888351	H	0.851858	0.565748	0.133383
266888351	O	0.968099	0.560409	0.344415
266888351	H	0.770162	0.382915	0.173106
266888351	H	0.940378	0.358169	0.150014
266888351	H	0.0285924	0.349817	0.308147
266888351	O	0.980441	0.451261	0.197531
266888351	Fe	0.898922	0.396092	0.0964057
266888351	Fe	0.768234	0.345176	0.166551
266888351	H	0.891954	0.588947	0.182805
266888351	C	0.889934	0.48861	0.0953633
266888351	C	0.993099	0.45256	0.15299
266888351	O	0.943241	0.472312	0.0970092
266888351	O	0.0920594	0.506728	0.292782
266888351	H	0.0229823	0.412261	0.221142
266888351	C	0.980459	0.524399	0.199931
266888351	H	0.0776794	0.457112	0.101366
266888351	C	0.0220772	0.453851	0.268949
266888351	O	0.0076676	0.531331	0.257612
266888351	O	0.0915931	0.493473	0.260545
266888351	O	0.992438	0.535862	0.339871
266888351	H	0.0888733	0.496401	0.303281
266888351	O	0.994272	0.359582	0.320497
266888351	H	0.80152	0.348532	0.186904
266888351	C	0.93007	0.430114	0.259781
266888351	C	0.930586	0.422374	0.240054
266888351	O	0.97014	0.358759	0.284598
266888351	H	0.995527	0.484685	0.295647
266888351	H	0.0418822	0.53618	0.301199
266888351	O	0.0927035	0.372371	0.172733
266888351	H	0.974876	0.3935	0.168272
266888351	O	0.00988867	0.391807	0.106146
266888351	C	0.0270717	0.360117	0.249114
266888351	C	0.95485	0.547504	0.306063
266888351	O	0.0597962	0.445057	0.341639
266888351	O	0.0639714	0.422218	0.237977
266888351	O	0.997388	0.491988	0.199755
266888351	O	0.01465	0.456869	0.222547
266888351	O	0.949436	0.443143	0.173223
266888351	C	0.0476488	0.516323	0.334917
266888351	H	0.931085	0.417214	0.154703
266888351	C	0.934112	0.446381	0.184165
266888351	H	0.961913	0.456501	0.127442
266888351	C	0.9821	0.350305	0.331657
266888351	H	0.0354427	0.4135	0.296316
266888351	C	0.933289	0.348848	0.254797
266888351	C	0.0603074	0.38427	0.256909
266888351	H	0.0837701	0.401465	0.101467
266888351	C	0.0522156	0.538286	0.330863
266888351	O	0.0245874	0.358602	0.12541
266888351	H	0.985558	0.367701	0.12827
266888351	H	0.93591	0.481917	0.229073
266888351	C	0.0341218	0.574573	0.290853
266888351	H	0.93436	0.538666	0.242611
266888351	C	0.0528698	0.579424	0.322672
266888351	O	0.0922027	0.397164	0.193946
266888351	O	0.0341664	0.421164	0.222678
266888351	C	0.00367592	0.394342	0.278874
266888351	C	0.953852	0.540903	0.285904
266888351	C	0.032455	0.479487	0.0989683
266888351	O	0.0683053	0.348986	0.296487
266888351	C	0.987886	0.572756	0.23114
266888351	C	0.0283697	0.420899	0.284166
266888351	C	0.0145515	0.411921	0.271166
266888351	C	0.0589089	0.365977	0.26642
266888351	O	0.085027	0.373222	0.327978
266888351	O	0.989754	0.585745	0.280792
266888351	C	0.956818	0.521085	0.280901
266888351	O	0.986036	0.435098	0.158103
266888351	C	0.971481	0.554172	0.18003
266888351	C	0.963331	0.534638	0.319124
266888351	C	0.976601	0.460035	0.121032
266888351	O	0.999454	0.495522	0.304737
266888351	O	0.032517	0.508684	0.327569
266888351	H	0.988845	0.530188	0.229999
266888351	C	0.0351159	0.373176	0.131139
266888351	O	0.0112815	0.376736	0.284035
266888351	O	0.00295826	0.575997	0.320811
266888351	O	0.0248946	0.540183	0.106835
266888351	H	0.0243319	0.469955	0.268828
266888351	O	0.0770002	0.495931	0.100939
266888351	O	0.0285018	0.562757	0.277806
266888351	C	0.0460585	0.390942	0.242941
266888351	C	0.00607877	0.352554	0.252781
266888351	O	0.0286629	0.440117	0.318555
266888351	O	0.964515	0.347449	0.324767
266888351	C	0.0292661	0.441916	0.284817
266888351	F	0.966502	0.394809	0.242214
266888351	O	0.0337754	0.46979	0.305456
266888351	Fe	0.995782	0.348191	0.292378
266888351	O	0.991569	0.364359	0.248419
266888351	H	0.952384	0.487052	0.246334
266888351	Fe	0.968589	0.377332	0.263749
266888351	H	0.956249	0.564079	0.309647
266888351	C	0.949565	0.486816	0.294536
266888351	C	0.980863	0.501235	0.201396
266888351	O	0.950263	0.573508	0.274024
266888351	C	0.0485141	0.40088	0.184436
266888351	O	0.98339	0.358199	0.116467
266888351	C	0.0618575	0.387102	0.177081
266888351	H	0.9712	0.582098	0.196507
266888351	C	0.0300803	0.378311	0.238867
266888351	C	0.994427	0.457403	0.132438
266888351	H	0.95606	0.516538	0.265502
266888351	C	0.978404	0.468642	0.101909
266888351	O	0.019878	0.434362	0.18408
266888351	O	0.956015	0.580555	0.163491
266888351	O	0.948921	0.477533	0.310409
266888351	O	0.974417	0.585076	0.237782
266888351	C	0.0323428	0.451231	0.303807
266888351	O	0.971794	0.553155	0.260951
266888351	C	0.975641	0.54347	0.335522
266888351	Fe	0.0158372	0.482275	0.327273
266888351	Fe	0.00864125	0.361792	0.0998718
266888351	H	0.944129	0.4347	0.266604
266888351	H	0.00919127	0.547287	0.302866
266888351	C	0.0462917	0.566398	0.307657
266888351	C	0.0038656	0.456614	0.237482
266888351	O	0.948254	0.393809	0.280299
266888351	C	0.949346	0.42513	0.226447
266888351	C	0.0226211	0.389295	0.161849
266888351	H	0.0663822	0.52223	0.240495
266888351	O	0.927932	0.350633	0.272837
266888351	O	0.943846	0.373465	0.110496
266888351	C	0.0483885	0.412225	0.234563
266888351	C	0.0874489	0.578248	0.291284
266888351	H	0.0789689	0.573354	0.27892
266888351	O	0.995689	0.545608	0.296801
266888351	C	0.976003	0.566444	0.196603
266888351	Fe	0.999436	0.559322	0.269803
266888351	H	0.944646	0.509302	0.14617
266888351	C	0.94789	0.410158	0.313728
266888351	C	0.055091	0.374917	0.161744
266888351	H	0.967355	0.50431	0.326594
266888351	O	0.951635	0.551027	0.150864
266888351	O	0.987208	0.466395	0.237507
266888351	C	0.0060858	0.423629	0.255275
266888351	H	0.0181249	0.532927	0.247737
266888351	H	0.0111616	0.534361	0.105553
266888351	H	0.93993	0.510931	0.168994
266888351	H	0.974996	0.42227	0.301283
266888351	Fe	0.00652711	0.462376	0.193469
266888351	O	0.935886	0.45541	0.200903
266888351	C	0.963101	0.514358	0.315109
266888351	C	0.0490202	0.546276	0.311425
266888351	C	0.97615	0.409356	0.0994989
266888351	O	0.0348714	0.496747	0.104093
266888351	H	0.995574	0.531513	0.293568
266888351	C	0.0739305	0.360521	0.282445
266888351	H	0.0184358	0.384279	0.229677
266888351	Fe	0.971561	0.426475	0.184423
266888351	H	0.0271894	0.536695	0.120522
266888351	H	0.00795189	0.390906	0.155386
266888351	H	0.0801148	0.538754	0.231639
266888351	H	0.0778644	0.416919	0.329486
266888351	O	0.936832	0.483067	0.28081
266888351	O	0.0914712	0.369238	0.283054
266888351	C	0.958019	0.507289	0.296456
266888351	F	0.0307538	0.473276	0.187084
266888351	O	0.964744	0.491289	0.204132
266888351	O	0.948766	0.359256	0.249051
266888351	C	0.990433	0.442504	0.3341
266888351	H	0.00951597	0.503356	0.296394
266888351	H	0.0666269	0.365596	0.153636
266888351	C	0.972077	0.43135	0.33223
266888351	C	0.97471	0.533877	0.181742
266888351	H	0.0542487	0.411365	0.195665
266888351	H	0.0264477	0.462539	0.132468
266888351	O	0.0677623	0.527458	0.100249
266888351	O	0.0795141	0.524288	0.233984
266888351	O	0.951265	0.416469	0.209272
266888351	C	0.957048	0.555819	0.271562
266888351	H	0.00726943	0.580194	0.334734
266888351	H	0.972508	0.524672	0.168213
266888351	H	0.978522	0.407762	0.114889
266888351	O	0.00327322	0.569868	0.242225
266888351	O	0.940903	0.377289	0.308227
266888351	O	0.998645	0.46608	0.164765
266888351	C	0.0283832	0.401123	0.177677
266888351	C	0.0835278	0.385871	0.181626
266888351	O	0.996998	0.410768	0.192111
266888351	H	0.996262	0.417075	0.244825
266888351	C	0.0138265	0.415872	0.185031
266888351	H	0.935291	0.440917	0.112453
266888351	C	0.983825	0.558553	0.214175
266888351	O	0.933969	0.511923	0.155967
266888351	O	0.985964	0.396616	0.277214
266888351	C	0.960274	0.56244	0.162933
266888351	H	0.0251228	0.405521	0.33591
266888351	C	0.0423169	0.353456	0.261928
266888351	C	0.935788	0.410644	0.330258
266888351	C	0.0368776	0.378363	0.15205
266888351	C	0.0819161	0.514351	0.0997864
266888351	C	0.945416	0.39335	0.29935
266888351	C	0.943192	0.391062	0.102976
266888351	O	0.994758	0.458465	0.323957
266888351	C	0.984503	0.537407	0.216366
266888351	H	0.953116	0.393193	0.177919
266888351	O	0.962738	0.436225	0.23258
266888351	Fe	0.963511	0.462836	0.217586
266888351	H	0.072083	0.394361	0.261275
266888351	C	0.0146089	0.46959	0.105243
266888351	H	0.0773816	0.494472	0.256349
266888351	C	0.0608511	0.573415	0.341094
266888351	H	0.0153085	0.524135	0.267787
266888351	C	0.0104586	0.444552	0.254583
266888351	O	0.0453632	0.384017	0.119007
266888351	C	0.965572	0.422391	0.314023
266888351	Fe	0.946866	0.349894	0.298663
266888351	O	0.766275	0.375912	0.16052
266888351	H	0.848086	0.583183	0.189628
266888351	H	0.920512	0.3506	0.156316
266888351	O	0.931418	0.496263	0.343011
266888351	C	0.836355	0.538598	0.0946968
266888351	O	0.779615	0.408564	0.403165
266888351	O	0.796639	0.414376	0.441887
266888351	O	0.787433	0.376713	0.427246
266888351	H	0.8056	0.417976	0.43092
266888351	H	0.826948	0.369845	0.401424
266888351	O	0.85765	0.487832	0.435571
266888351	C	0.854388	0.481527	0.41844
266888351	O	0.837494	0.475838	0.41417
266888351	O	0.823423	0.512396	0.423886
266888351	O	0.805823	0.449009	0.411241
266888351	O	0.799018	0.489851	0.423512
266888351	C	0.807087	0.505188	0.416684
266888351	H	0.812503	0.451559	0.399046
266888351	H	0.791431	0.453194	0.409624
266888351	O	0.775848	0.571329	0.390762
266888351	C	0.772651	0.553165	0.385013
266888351	C	0.799313	0.532707	0.394767
266888351	C	0.799273	0.511834	0.397334
266888351	C	0.78946	0.500052	0.383022
266888351	C	0.78959	0.541366	0.378676
266888351	H	0.802656	0.542175	0.407479
266888351	C	0.890382	0.478194	0.414644
266888351	C	0.873411	0.482168	0.384117
266888351	C	0.908991	0.477202	0.405263
266888351	C	0.891396	0.480691	0.373384
266888351	C	0.909383	0.477724	0.384506
266888351	C	0.872276	0.480063	0.404778
266888351	H	0.860486	0.485219	0.376526
266888351	H	0.923154	0.480543	0.377466
266888351	H	0.890997	0.475659	0.429571
266888351	C	0.895861	0.539915	0.489042
266888351	H	0.895795	0.566362	0.471625
266888351	O	0.86778	0.529271	0.505445
266888351	C	0.875857	0.542717	0.495642
266888351	O	0.8656	0.560496	0.491843
266888351	H	0.852733	0.559016	0.498811
266888351	F	0.892105	0.366391	0.449973
266888351	Fe	0.848279	0.376924	0.529959
266888351	O	0.848039	0.400602	0.511513
266888351	C	0.845411	0.419154	0.513524
266888351	O	0.838253	0.426272	0.529684
266888351	O	0.817975	0.372721	0.522728
266888351	O	0.839563	0.390282	0.554129
266888351	Fe	0.8482	0.418755	0.55683
266888351	O	0.877432	0.381351	0.538961
266888351	O	0.875007	0.413164	0.546045
266888351	C	0.885121	0.397453	0.545858
266888351	O	0.79912	0.380218	0.549441
266888351	C	0.800763	0.374924	0.530863
266888351	F	0.85499	0.363073	0.507016
266888351	H	0.802749	0.402896	0.449124
266888351	H	0.90848	0.438728	0.480696
266888351	C	0.859869	0.424895	0.479782
266888351	H	0.859353	0.409192	0.478677
266888351	C	0.904805	0.397611	0.555377
266888351	C	0.918326	0.384713	0.547417
266888351	H	0.916562	0.37995	0.532267
266888351	C	0.782246	0.37317	0.519718
266888351	C	0.782549	0.361683	0.502608
266888351	O	0.873415	0.410053	0.443833
266888351	O	0.804462	0.515276	0.484171
266888351	O	0.825355	0.529495	0.462932
266888351	C	0.811239	0.529976	0.475472
266888351	Fe	0.840476	0.507164	0.448969
266888351	O	0.816023	0.455016	0.484166
266888351	O	0.832265	0.445727	0.446065
266888351	H	0.824302	0.438129	0.456319
266888351	O	0.858229	0.499712	0.472551
266888351	Fe	0.810762	0.485452	0.483187
266888351	O	0.822818	0.486225	0.456229
266888351	Fe	0.815216	0.467723	0.434889
266888351	O	0.789995	0.456184	0.451835
266888351	O	0.798003	0.483933	0.512041
266888351	O	0.837259	0.491637	0.496472
266888351	O	0.784545	0.482807	0.470777
266888351	C	0.853816	0.487671	0.486481
266888351	C	0.780014	0.465412	0.465077
266888351	H	0.800229	0.498246	0.515724
266888351	H	0.783343	0.484314	0.512048
266888351	F	0.858639	0.527096	0.44197
266888351	O	0.821639	0.426167	0.568081
266888351	O	0.856761	0.448391	0.559546
266888351	H	0.869261	0.449132	0.566714
266888351	H	0.859665	0.452597	0.545869
266888351	O	0.916188	0.465315	0.577678
266888351	C	0.907118	0.472755	0.563038
266888351	O	0.891602	0.483337	0.565961
266888351	O	0.849132	0.487936	0.575258
266888351	O	0.909366	0.444724	0.467069
266888351	O	0.925376	0.483729	0.478315
266888351	H	0.911412	0.433839	0.458084
266888351	C	0.917182	0.476414	0.543445
266888351	C	0.921896	0.496754	0.540324
266888351	H	0.912076	0.508525	0.544672
266888351	C	0.867978	0.458165	0.467441
266888351	C	0.851715	0.432889	0.497525
266888351	C	0.860022	0.466357	0.485268
266888351	C	0.851826	0.454044	0.49914
266888351	C	0.868525	0.436854	0.464662
266888351	H	0.874764	0.468076	0.456799
266888351	H	0.84476	0.46072	0.512058
266888351	C	0.802032	0.56425	0.488322
266888351	C	0.799071	0.548238	0.475311
266888351	C	0.787487	0.549596	0.458599
266888351	H	0.813555	0.564314	0.499094
266888351	C	0.904639	0.552987	0.475717
266888351	C	0.906297	0.521497	0.492721
266888351	C	0.924934	0.551929	0.471022
266888351	H	0.900144	0.509119	0.500938
266888351	H	0.811641	0.450687	0.498385
266888351	H	0.834041	0.436203	0.435637
266888351	C	0.874509	0.42824	0.446417
266888351	O	0.881837	0.440608	0.431814
266888351	H	0.882451	0.432644	0.419645
266888351	O	0.922095	0.569633	0.440159
266888351	C	0.925628	0.518852	0.485708
266888351	H	0.790935	0.540187	0.445897
266888351	O	0.922725	0.472852	0.437158
266888351	C	0.926256	0.473125	0.418843
266888351	C	0.775197	0.565771	0.456229
266888351	Fe	0.819293	0.374763	0.570301
266888351	C	0.78755	0.36259	0.415479
266888351	H	0.788302	0.484433	0.386398
266888351	H	0.846924	0.502236	0.575197
266888351	C	0.904639	0.400955	0.576229
266888351	Fe	0.899701	0.349475	0.430666
266888351	H	0.779562	0.426574	0.468513
266888351	O	0.911744	0.372208	0.413041
266888351	C	0.789037	0.581317	0.485607
266888351	H	0.851671	0.484977	0.561366
266888351	O	0.870398	0.351804	0.418289
266888351	H	0.892595	0.411238	0.581576
266888351	C	0.785209	0.529319	0.362952
266888351	C	0.773043	0.579953	0.47202
266888351	C	0.781798	0.50883	0.365501
266888351	C	0.817134	0.418797	0.584714
266888351	O	0.858804	0.412367	0.584673
266888351	H	0.797164	0.35841	0.497135
266888351	C	0.824351	0.355006	0.407036
266888351	O	0.913185	0.408806	0.364181
266888351	O	0.812369	0.400953	0.586259
266888351	C	0.915042	0.388095	0.58981
266888351	F	0.90209	0.581715	0.408679
266888351	Fe	0.770599	0.40068	0.432149
266888351	O	0.878491	0.520098	0.584493
266888351	O	0.772569	0.358389	0.405267
266888351	C	0.891906	0.485018	0.351809
266888351	O	0.853524	0.351139	0.544076
266888351	O	0.797757	0.359523	0.587145
266888351	H	0.919502	0.428158	0.391197
266888351	C	0.924639	0.369803	0.560223
266888351	C	0.924979	0.349444	0.55306
266888351	C	0.768623	0.497233	0.351111
266888351	H	0.866354	0.423816	0.590438
266888351	C	0.767687	0.433545	0.475714
266888351	Fe	0.926659	0.589394	0.418467
266888351	C	0.805458	0.349409	0.414278
266888351	C	0.861962	0.344826	0.403353
266888351	C	0.76621	0.454352	0.477231
266888351	C	0.76512	0.357097	0.492832
266888351	C	0.924469	0.372432	0.580711
266888351	H	0.797671	0.58668	0.354379
266888351	H	0.924724	0.454861	0.353901
266888351	H	0.0902778	0.347068	0.449692
266888351	H	0.943609	0.508183	0.577907
266888351	O	0.764214	0.585791	0.430166
266888351	O	0.926923	0.348111	0.444759
266888351	C	0.96068	0.427837	0.348618
266888351	O	0.765544	0.569567	0.582493
266888351	H	0.924209	0.35639	0.457473
266888351	O	0.825034	0.347152	0.558228
266888351	H	0.850452	0.380443	0.588411
266888351	O	0.926416	0.346444	0.53383
266888351	H	0.920736	0.4465	0.531848
266888351	O	0.763277	0.39399	0.460323
266888351	O	0.761456	0.553425	0.426415
266888351	C	0.926612	0.461608	0.531203
266888351	H	0.841989	0.450858	0.590354
266888351	H	0.776508	0.536592	0.350297
266888351	O	0.841907	0.368573	0.588951
266888351	C	0.765187	0.568355	0.437138
266888351	O	0.928979	0.50606	0.581442
266888351	O	0.76555	0.578858	0.35397
266888351	O	0.891819	0.50315	0.346512
266888351	C	0.764099	0.380156	0.52736
266888351	H	0.090801	0.400276	0.486452
266888351	H	0.762474	0.591727	0.469596
266888351	H	0.917193	0.34569	0.489542
266888351	H	0.769988	0.387149	0.374597
266888351	C	0.928874	0.41893	0.365278
266888351	Fe	0.875937	0.490299	0.591213
266888351	H	0.964119	0.590833	0.553879
266888351	H	0.77806	0.423231	0.401796
266888351	O	0.0327092	0.411018	0.347066
266888351	H	0.0404629	0.587354	0.494146
266888351	C	0.0773185	0.344862	0.479025
266888351	C	0.942598	0.418738	0.34826
266888351	F	0.95177	0.474505	0.592073
266888351	O	0.0309609	0.346325	0.39569
266888351	H	0.0746223	0.518644	0.592315
266888351	C	0.0894706	0.571958	0.55257
266888351	H	0.986352	0.424692	0.406508
266888351	O	0.935101	0.536765	0.539763
266888351	C	0.0293971	0.421502	0.413439
266888351	O	0.088809	0.431873	0.563108
266888351	C	0.932178	0.51464	0.346183
266888351	H	0.093225	0.568651	0.583982
266888351	C	0.0594796	0.552043	0.345618
266888351	H	0.883801	0.520162	0.570154
266888351	H	0.775141	0.440757	0.345726
266888351	H	0.0783565	0.455048	0.585464
266888351	H	0.932584	0.54502	0.374108
266888351	H	0.783894	0.349216	0.361792
266888351	C	0.930107	0.371235	0.407098
266888351	H	0.993471	0.395453	0.346479
266888351	O	0.932564	0.429314	0.382783
266888351	H	0.92978	0.405595	0.429903
266888351	O	0.0568356	0.507238	0.349211
266888351	O	0.998406	0.495417	0.349537
266888351	Fe	0.0310411	0.441898	0.347527
266888351	C	0.0917744	0.43871	0.545702
266888351	H	0.947973	0.362444	0.509155
266888351	C	0.0382741	0.531104	0.490865
266888351	O	0.029816	0.470333	0.347888
266888351	C	0.0884366	0.35448	0.464284
266888351	C	0.0163531	0.391846	0.431898
266888351	C	0.0703539	0.469529	0.583934
266888351	C	0.00577301	0.463089	0.452577
266888351	C	0.957918	0.560805	0.400568
266888351	H	0.0203636	0.360383	0.499138
266888351	C	0.945919	0.537699	0.373166
266888351	C	0.95394	0.398504	0.493034
266888351	H	0.00256627	0.369151	0.488739
266888351	H	0.946693	0.466547	0.349881
266888351	C	0.935385	0.535162	0.477429
266888351	C	0.942457	0.38925	0.404646
266888351	C	0.051702	0.469607	0.575206
266888351	O	0.00157424	0.439254	0.348805
266888351	Fe	0.977729	0.480537	0.478675
266888351	H	0.939145	0.549075	0.533814
266888351	H	0.0871122	0.569834	0.521588
266888351	Fe	0.935431	0.460269	0.462031
266888351	C	0.991637	0.369123	0.533705
266888351	H	0.0250026	0.485778	0.567825
266888351	C	0.0177836	0.44728	0.443377
266888351	C	0.95648	0.388797	0.389879
266888351	H	0.0593138	0.398705	0.425937
266888351	C	0.973577	0.400395	0.391153
266888351	H	0.0618584	0.51657	0.438356
266888351	O	0.0620745	0.400758	0.512378
266888351	C	0.935669	0.499308	0.483588
266888351	H	0.00620704	0.421327	0.459559
266888351	O	0.0544169	0.406218	0.555018
266888351	O	0.0573359	0.585373	0.543156
266888351	Fe	0.0463841	0.364909	0.414723
266888351	O	0.934771	0.391828	0.488836
266888351	O	0.0800681	0.435303	0.531853
266888351	H	0.00741934	0.496869	0.493621
266888351	O	0.0420525	0.552833	0.517281
266888351	C	0.97555	0.41289	0.407226
266888351	O	0.952346	0.567575	0.454751
266888351	O	0.939978	0.355017	0.407581
266888351	O	0.00285373	0.571455	0.517902
266888351	O	0.0232896	0.379312	0.56907
266888351	C	0.946041	0.522451	0.529865
266888351	C	0.951304	0.4855	0.522785
266888351	O	0.0383329	0.349745	0.43792
266888351	O	0.0607999	0.385036	0.431944
266888351	H	0.965176	0.435689	0.362095
266888351	H	0.0324813	0.470455	0.4245
266888351	O	0.0277206	0.508173	0.421783
266888351	C	0.0165154	0.396374	0.528805
266888351	H	0.929473	0.361256	0.591159
266888351	H	0.0340516	0.411501	0.402502
266888351	H	0.949786	0.532749	0.47191
266888351	C	0.972195	0.585845	0.522974
266888351	C	0.943123	0.402778	0.420803
266888351	H	0.994494	0.500085	0.548116
266888351	H	0.0398532	0.351453	0.529823
266888351	O	0.973154	0.446257	0.428249
266888351	H	0.0149772	0.505138	0.414839
266888351	H	0.00788362	0.356993	0.364947
266888351	O	0.0309399	0.384634	0.526796
266888351	C	0.981621	0.514703	0.373258
266888351	C	0.0312557	0.539456	0.510048
266888351	F	0.0464016	0.438614	0.510169
266888351	C	0.940349	0.501683	0.531596
266888351	C	0.0266374	0.530147	0.472936
266888351	O	0.0430469	0.447036	0.548829
266888351	C	0.959969	0.433156	0.433023
266888351	H	0.0115552	0.533592	0.472613
266888351	O	0.961828	0.412631	0.482476
266888351	O	0.0211395	0.414717	0.530852
266888351	C	0.0478399	0.504882	0.579586
266888351	H	0.92887	0.400342	0.478444
266888351	C	0.0458499	0.449815	0.5674
266888351	O	0.946056	0.436131	0.446017
266888351	C	0.983692	0.398344	0.514446
266888351	O	0.0133211	0.38384	0.449104
266888351	C	0.933653	0.564562	0.454523
266888351	H	0.063901	0.546628	0.360586
266888351	O	0.00306242	0.56773	0.589758
266888351	O	0.969162	0.458851	0.496549
266888351	C	0.987731	0.401781	0.374095
266888351	C	0.0592179	0.527074	0.487562
266888351	C	0.946692	0.519858	0.362544
266888351	C	0.0216274	0.521836	0.43541
266888351	C	0.0690411	0.590246	0.354896
266888351	C	0.969975	0.591377	0.503356
266888351	H	0.995414	0.567956	0.464357
266888351	O	0.99953	0.476638	0.440862
266888351	Fe	0.0510884	0.423436	0.531637
266888351	C	0.0726753	0.448833	0.355244
266888351	H	0.0660915	0.3475	0.50819
266888351	O	0.0212042	0.561635	0.552823
266888351	O	0.073961	0.378837	0.534607
266888351	C	0.959982	0.414744	0.421373
266888351	O	0.987936	0.512645	0.544314
266888351	O	0.0593096	0.567239	0.569129
266888351	O	0.0432894	0.350222	0.543852
266888351	C	0.03376	0.524121	0.45394
266888351	O	0.0632508	0.369056	0.576141
266888351	O	0.0170778	0.370033	0.488817
266888351	O	0.0148597	0.534797	0.518724
266888351	H	0.0686366	0.527826	0.500175
266888351	O	0.996639	0.490082	0.501567
266888351	O	0.0870694	0.391497	0.578991
266888351	O	0.941155	0.447045	0.489373
266888351	H	0.973723	0.580222	0.492419
266888351	H	0.0650091	0.390586	0.393858
266888351	Fe	0.0438538	0.485626	0.367766
266888351	H	0.0459204	0.384199	0.380907
266888351	C	0.0727825	0.385433	0.516415
266888351	C	0.0540136	0.521308	0.452527
266888351	C	0.0877325	0.525296	0.465673
266888351	H	0.987308	0.41322	0.509081
266888351	C	0.0889009	0.43407	0.356316
266888351	F	0.981981	0.477939	0.403008
266888351	C	0.986331	0.570343	0.527033
266888351	C	0.0140218	0.426449	0.44579
266888351	Fe	0.0676074	0.415127	0.579063
266888351	C	0.0195888	0.413654	0.430442
266888351	H	0.954761	0.50721	0.437942
266888351	Fe	0.0277361	0.36037	0.462563
266888351	H	0.966485	0.488901	0.517731
266888351	O	0.0210529	0.381273	0.416211
266888351	Fe	0.0309763	0.568321	0.578343
266888351	C	0.996426	0.38835	0.527184
266888351	C	0.0759662	0.353902	0.497493
266888351	H	0.982806	0.516517	0.467121
266888351	O	0.984157	0.391455	0.356929
266888351	H	0.977231	0.562619	0.355437
266888351	C	0.966642	0.388955	0.507684
266888351	C	0.0782609	0.375788	0.585354
266888351	C	0.0324934	0.441681	0.410934
266888351	O	0.97078	0.565591	0.413754
266888351	O	0.999111	0.462288	0.469657
266888351	C	0.0279809	0.454422	0.426784
266888351	C	0.078221	0.487218	0.591456
266888351	H	0.999066	0.361918	0.545182
266888351	H	0.0456693	0.391854	0.464006
266888351	H	0.976686	0.514792	0.553949
266888351	C	0.000803848	0.504998	0.365515
266888351	C	0.0678339	0.57563	0.55513
266888351	O	0.0566549	0.37894	0.38881
266888351	O	0.0466101	0.436223	0.579793
266888351	H	0.0215655	0.365825	0.573325
266888351	C	0.980242	0.53242	0.385226
266888351	O	0.991641	0.539026	0.576437
266888351	O	0.966808	0.507083	0.429025
266888351	H	0.0517152	0.382354	0.482426
266888351	C	0.0670587	0.505089	0.588167
266888351	C	0.961765	0.543261	0.38639
266888351	Fe	0.97122	0.475551	0.428217
266888351	H	0.00145429	0.477323	0.507028
266888351	O	0.00534875	0.532209	0.433335
266888351	O	0.995478	0.567111	0.449414
266888351	C	0.067253	0.524521	0.468517
266888351	O	0.0513835	0.379195	0.467845
266888351	Fe	0.0291713	0.577567	0.530623
266888351	O	0.0180124	0.504916	0.3741
266888351	O	0.944361	0.472583	0.412903
266888351	F	0.0586844	0.498248	0.388254
266888351	Fe	0.972052	0.584614	0.439066
266888351	C	0.973727	0.359541	0.527016
266888351	H	0.95575	0.377943	0.378402
266888351	O	0.983123	0.556311	0.538961
266888351	C	0.942873	0.467238	0.519324
266888351	O	0.0265363	0.521197	0.557259
266888351	Fe	0.00453315	0.538347	0.548098
266888351	O	0.0331209	0.468558	0.389612
266888351	H	0.00708793	0.575247	0.446749
266888351	C	0.961813	0.369239	0.513233
266888351	O	0.940698	0.569098	0.399286
266888351	O	0.988586	0.504441	0.461238
266888351	Fe	0.0486439	0.378329	0.551288
266888351	H	0.962252	0.510294	0.415642
266888351	O	0.960854	0.472207	0.456157
266888351	O	0.0729517	0.350635	0.4137
266888351	H	0.992582	0.537117	0.393781
266888351	O	0.0367375	0.438983	0.376588
266888351	C	0.081369	0.373282	0.500181
266888351	C	0.0352611	0.450007	0.391607
266888351	C	0.0401681	0.486468	0.573433
266888351	O	0.00475502	0.410404	0.376222
266888351	O	0.954091	0.499769	0.485472
266888351	H	0.963977	0.494831	0.356837
266888351	O	0.0751636	0.585883	0.372461
266888351	O	0.0707498	0.465086	0.365807
266888351	C	0.991276	0.552385	0.589779
266888351	C	0.964208	0.508353	0.364353
266888351	C	0.951969	0.4561	0.501192
266888351	O	0.96004	0.527644	0.518444
266888351	O	0.035596	0.538285	0.584806
266888351	C	0.0906145	0.384297	0.485284
266888351	C	0.036197	0.52274	0.57338
266888351	H	0.766055	0.438603	0.432039
266888351	H	0.763859	0.387913	0.541761
266888351	H	0.789528	0.3507	0.577275
266888351	H	0.0344257	0.405923	0.592268
266888351	O	0.766405	0.478262	0.352666
266888351	F	0.801472	0.585121	0.591128
266888351	C	0.0932431	0.374257	0.467001
266888351	H	0.889822	0.524733	0.591642
266888351	H	0.0564265	0.344736	0.543331
266888351	H	0.80534	0.349206	0.59369
266888351	O	0.794095	0.418943	0.657819
266888351	O	0.800981	0.416616	0.708874
266888351	C	0.785147	0.405912	0.708224
266888351	O	0.915735	0.374291	0.622583
266888351	O	0.886569	0.381714	0.609839
266888351	C	0.905343	0.382547	0.609585
266888351	Fe	0.867241	0.379615	0.633512
266888351	O	0.845379	0.378707	0.654078
266888351	C	0.84143	0.366305	0.667592
266888351	O	0.85545	0.359635	0.67944
266888351	O	0.885741	0.366376	0.651053
266888351	Fe	0.883322	0.371512	0.679513
266888351	O	0.877454	0.405826	0.643575
266888351	O	0.881774	0.376636	0.7095
266888351	O	0.872651	0.399628	0.675227
266888351	C	0.880576	0.409784	0.661635
266888351	O	0.910806	0.382982	0.678818
266888351	H	0.887568	0.389048	0.714292
266888351	F	0.848344	0.392534	0.61863
266888351	C	0.805522	0.368022	0.656168
266888351	C	0.820064	0.362556	0.670664
266888351	H	0.809808	0.377335	0.644303
266888351	H	0.877168	0.402162	0.765882
266888351	C	0.79721	0.378778	0.72923
266888351	C	0.781795	0.391565	0.724107
266888351	C	0.79564	0.363126	0.741261
266888351	H	0.810705	0.38158	0.722155
266888351	C	0.905476	0.423329	0.683663
266888351	C	0.89742	0.422287	0.665115
266888351	C	0.907063	0.432	0.649447
266888351	H	0.897862	0.417227	0.695754
266888351	H	0.899008	0.433289	0.635538
266888351	C	0.814546	0.422202	0.621846
266888351	H	0.801752	0.412405	0.621716
266888351	O	0.817779	0.43732	0.672006
266888351	C	0.810639	0.427787	0.657774
266888351	O	0.799561	0.452198	0.72621
266888351	C	0.783522	0.459572	0.733159
266888351	Fe	0.807268	0.445241	0.697605
266888351	O	0.780172	0.448439	0.686621
266888351	O	0.7847	0.488818	0.681823
266888351	O	0.837412	0.442638	0.706927
266888351	O	0.8146	0.47419	0.686168
266888351	C	0.802975	0.487829	0.677716
266888351	H	0.842512	0.456284	0.706998
266888351	H	0.835937	0.438787	0.720822
266888351	O	0.886653	0.449086	0.738279
266888351	H	0.883827	0.462569	0.742533
266888351	H	0.877474	0.440311	0.747167
266888351	O	0.787628	0.561792	0.653529
266888351	Fe	0.780373	0.577143	0.607433
266888351	O	0.794797	0.549905	0.610663
266888351	C	0.790428	0.534121	0.621419
266888351	O	0.916771	0.518278	0.634291
266888351	O	0.874359	0.469454	0.635512
266888351	C	0.86698	0.459425	0.620071
266888351	Fe	0.896652	0.494707	0.636422
266888351	O	0.900129	0.491039	0.608271
266888351	O	0.856494	0.498309	0.613584
266888351	O	0.893863	0.498674	0.667175
266888351	O	0.874159	0.514803	0.635519
266888351	C	0.857176	0.508379	0.62901
266888351	H	0.88436	0.510137	0.66838
266888351	H	0.907172	0.503678	0.671407
266888351	C	0.798117	0.509857	0.647328
266888351	C	0.831516	0.502045	0.656551
266888351	C	0.805072	0.520903	0.630821
266888351	C	0.838582	0.512461	0.639673
266888351	C	0.82493	0.522218	0.627441
266888351	C	0.811305	0.50038	0.660888
266888351	H	0.841562	0.493763	0.665826
266888351	H	0.829708	0.52995	0.614659
266888351	H	0.781738	0.507885	0.649569
266888351	C	0.777528	0.454422	0.754379
266888351	C	0.841846	0.437719	0.639323
266888351	C	0.849464	0.445802	0.621205
266888351	C	0.823808	0.427419	0.639498
266888351	H	0.850287	0.439816	0.652552
266888351	O	0.906134	0.42096	0.764407
266888351	C	0.915442	0.404788	0.769908
266888351	O	0.844841	0.394441	0.774599
266888351	O	0.836431	0.363159	0.775031
266888351	C	0.849065	0.376585	0.770734
266888351	O	0.783321	0.36353	0.806791
266888351	O	0.811963	0.415798	0.789392
266888351	C	0.794705	0.418568	0.79558
266888351	C	0.911694	0.365799	0.774356
266888351	C	0.904397	0.38506	0.769984
266888351	C	0.870875	0.370656	0.76808
266888351	C	0.884149	0.386827	0.766661
266888351	O	0.914344	0.552165	0.813935
266888351	H	0.818241	0.551412	0.765183
266888351	O	0.804444	0.549375	0.769957
266888351	Fe	0.797904	0.578078	0.782557
266888351	C	0.915096	0.500664	0.79476
266888351	C	0.896947	0.514765	0.822424
266888351	C	0.908625	0.481015	0.800603
266888351	C	0.893504	0.495962	0.831604
266888351	C	0.897561	0.478923	0.818548
266888351	C	0.909705	0.517167	0.805846
266888351	C	0.788559	0.440735	0.765798
266888351	C	0.781406	0.433814	0.784553
266888351	H	0.80254	0.435202	0.759974
266888351	H	0.888876	0.366161	0.716413
266888351	C	0.838	0.44232	0.60363
266888351	O	0.822572	0.574722	0.800184
266888351	C	0.821891	0.429077	0.603399
266888351	C	0.792488	0.579579	0.649831
266888351	H	0.785071	0.574705	0.689595
266888351	C	0.878391	0.351264	0.770973
266888351	O	0.858551	0.350719	0.622394
266888351	C	0.899303	0.348819	0.774737
266888351	O	0.772236	0.471223	0.722333
266888351	O	0.771866	0.408055	0.693827
266888351	O	0.873244	0.462397	0.602121
266888351	C	0.784799	0.363394	0.659487
266888351	H	0.794837	0.555307	0.725724
266888351	Fe	0.834848	0.352873	0.8025
266888351	H	0.892827	0.464872	0.822528
266888351	Fe	0.915563	0.445009	0.747265
266888351	C	0.914635	0.462753	0.788519
266888351	O	0.909783	0.464865	0.770454
266888351	O	0.790321	0.55048	0.738865
266888351	O	0.852476	0.430972	0.794178
266888351	Fe	0.838021	0.404307	0.802588
266888351	C	0.778384	0.361832	0.752406
266888351	O	0.920116	0.477316	0.643923
266888351	O	0.863719	0.361365	0.807594
266888351	H	0.856681	0.437311	0.806986
266888351	O	0.788719	0.407776	0.810752
266888351	O	0.823546	0.378531	0.810303
266888351	H	0.806916	0.539281	0.780892
266888351	O	0.921287	0.426918	0.72296
266888351	O	0.774139	0.581223	0.765095
266888351	H	0.865562	0.427085	0.788495
266888351	O	0.780534	0.56474	0.805618
266888351	Fe	0.799405	0.38031	0.826019
266888351	O	0.775586	0.376757	0.627054
266888351	O	0.772736	0.531026	0.62545
266888351	O	0.866194	0.394821	0.814726
266888351	H	0.786326	0.569713	0.818124
266888351	H	0.891954	0.527882	0.829652
266888351	H	0.820844	0.582036	0.812931
266888351	C	0.770437	0.36753	0.643924
266888351	C	0.920645	0.537742	0.803341
266888351	O	0.830665	0.417153	0.829901
266888351	H	0.866567	0.403137	0.826615
266888351	H	0.875863	0.401222	0.805243
266888351	O	0.795898	0.58609	0.632451
266888351	H	0.782689	0.550645	0.804075
266888351	Fe	0.76826	0.42743	0.669358
266888351	O	0.895609	0.582561	0.756171
266888351	Fe	0.907043	0.351459	0.639741
266888351	H	0.834139	0.369862	0.601044
266888351	C	0.923464	0.444359	0.652608
266888351	C	0.783231	0.589527	0.684616
266888351	O	0.828704	0.35152	0.732615
266888351	H	0.834141	0.583143	0.795353
266888351	C	0.780184	0.354667	0.677486
266888351	O	0.926267	0.457556	0.619171
266888351	C	0.92416	0.432762	0.687046
266888351	C	0.925777	0.460691	0.637649
266888351	O	0.922855	0.4698	0.729509
266888351	C	0.812136	0.349965	0.743354
266888351	H	0.92064	0.557382	0.691397
266888351	H	0.91988	0.579391	0.693995
266888351	H	0.893289	0.581605	0.834968
266888351	O	0.92268	0.446789	0.795976
266888351	O	0.764271	0.576634	0.721062
266888351	O	0.0506997	0.345597	0.656836
266888351	C	0.814323	0.350652	0.686762
266888351	H	0.776418	0.350273	0.761664
266888351	Fe	0.927048	0.482328	0.59994
266888351	C	0.925884	0.375876	0.670542
266888351	O	0.0907789	0.53169	0.640111
266888351	H	0.77663	0.533768	0.676558
266888351	H	0.869138	0.348893	0.814114
266888351	Fe	0.763337	0.559746	0.746716
266888351	C	0.764452	0.390252	0.736349
266888351	O	0.925476	0.567558	0.700013
266888351	H	0.0873894	0.525576	0.696163
266888351	H	0.763195	0.380876	0.619948
266888351	H	0.957085	0.34524	0.804209
266888351	H	0.0026011	0.346178	0.782237
266888351	C	0.787759	0.346553	0.800945
266888351	O	0.812571	0.592341	0.761293
266888351	O	0.0669533	0.345346	0.800541
266888351	H	0.764041	0.352235	0.681091
266888351	H	0.939476	0.422722	0.816928
266888351	O	0.762359	0.446521	0.644971
266888351	O	0.806273	0.352814	0.840697
266888351	H	0.051729	0.542189	0.655816
266888351	O	0.765013	0.540886	0.77127
266888351	H	0.924	0.501729	0.781026
266888351	O	0.0931099	0.49236	0.719149
266888351	H	0.0923062	0.370373	0.663842
266888351	O	0.986846	0.427033	0.624194
266888351	O	0.986328	0.379761	0.839859
266888351	O	0.763794	0.529255	0.671119
266888351	Fe	0.763166	0.469766	0.692987
266888351	H	0.090966	0.455537	0.641896
266888351	H	0.92828	0.364622	0.775971
266888351	O	0.926126	0.359131	0.662375
266888351	O	0.942885	0.441314	0.756989
266888351	H	0.928504	0.585556	0.735886
266888351	C	0.949919	0.49059	0.697662
266888351	O	0.773201	0.382081	0.843013
266888351	Fe	0.0845586	0.462671	0.782781
266888351	C	0.762881	0.375749	0.752047
266888351	O	0.952125	0.477322	0.741745
266888351	H	0.967932	0.519038	0.60289
266888351	H	0.947253	0.450435	0.674908
266888351	O	0.957066	0.560165	0.826049
266888351	O	0.0442366	0.462679	0.759136
266888351	O	0.062726	0.478966	0.725104
266888351	C	0.013164	0.474413	0.790936
266888351	H	0.929607	0.528635	0.84279
266888351	O	0.992983	0.36339	0.813817
266888351	C	0.962598	0.534199	0.609214
266888351	C	0.978674	0.464238	0.781839
266888351	O	0.959267	0.555457	0.721155
266888351	O	0.0543817	0.375083	0.67042
266888351	C	0.081391	0.515499	0.644572
266888351	H	0.0528521	0.415544	0.791998
266888351	C	0.762902	0.44181	0.792702
266888351	C	0.027571	0.397556	0.785271
266888351	H	0.0860657	0.406884	0.803556
266888351	C	0.985002	0.416665	0.757965
266888351	O	0.0313193	0.348954	0.694186
266888351	H	0.939652	0.520635	0.73542
266888351	H	0.997402	0.405538	0.655618
266888351	C	0.0263258	0.489929	0.796112
266888351	H	0.986069	0.53717	0.667007
266888351	C	0.0735006	0.352339	0.712142
266888351	C	0.948014	0.534194	0.624131
266888351	H	0.999897	0.348449	0.738358
266888351	O	0.0832071	0.481249	0.760471
266888351	F	0.0375082	0.57444	0.603315
266888351	O	0.0637181	0.368596	0.713042
266888351	Fe	0.000463636	0.571234	0.71578
266888351	H	0.0438321	0.515275	0.71472
266888351	C	0.998449	0.50975	0.80514
266888351	H	0.082414	0.413441	0.613253
266888351	O	0.978574	0.588858	0.728344
266888351	H	0.0146845	0.437288	0.745697
266888351	H	0.999121	0.565453	0.797483
266888351	H	0.933467	0.400589	0.642598
266888351	C	0.956995	0.568162	0.633128
266888351	H	0.956671	0.375693	0.695772
266888351	C	0.943812	0.552085	0.634331
266888351	O	0.974203	0.418972	0.773732
266888351	C	0.98524	0.4945	0.801584
266888351	O	0.989485	0.545415	0.726314
266888351	O	0.964059	0.55873	0.767373
266888351	Fe	0.955396	0.567214	0.693253
266888351	H	0.0489806	0.404726	0.609933
266888351	O	0.0247855	0.553031	0.70551
266888351	H	0.0245853	0.509284	0.752563
266888351	H	0.017882	0.392423	0.723932
266888351	C	0.00953262	0.396581	0.774954
266888351	C	0.0678033	0.353719	0.784672
266888351	C	0.948465	0.513846	0.724501
266888351	H	0.0215827	0.562555	0.637467
266888351	C	0.0716103	0.499656	0.676715
266888351	H	0.0517318	0.36365	0.614626
266888351	H	0.0670219	0.378654	0.798245
266888351	Fe	0.0396793	0.377118	0.697631
266888351	Fe	0.927874	0.567338	0.835614
266888351	C	0.932978	0.443071	0.671297
266888351	H	0.983999	0.435541	0.611833
266888351	C	0.980504	0.388522	0.675771
266888351	O	0.0230899	0.391991	0.819661
266888351	C	0.989484	0.528015	0.810597
266888351	H	0.0361659	0.382088	0.734926
266888351	O	0.0312736	0.365887	0.801313
266888351	C	0.0698536	0.368928	0.640583
266888351	H	0.0802969	0.487353	0.673077
266888351	C	0.0547894	0.530332	0.666868
266888351	O	0.0498306	0.40704	0.700083
266888351	C	0.971897	0.541452	0.723287
266888351	O	0.0535794	0.502818	0.778802
266888351	H	0.00284378	0.488102	0.656909
266888351	C	0.0883738	0.526465	0.740519
266888351	C	0.934771	0.516616	0.627754
266888351	O	0.0118492	0.573872	0.637023
266888351	H	0.9698	0.496814	0.803225
266888351	H	0.992477	0.517574	0.699194
266888351	H	0.0378791	0.413947	0.703857
266888351	O	0.947003	0.586995	0.795169
266888351	H	0.945295	0.477507	0.689904
266888351	O	0.0237048	0.354673	0.841968
266888351	O	0.95482	0.418403	0.61602
266888351	O	0.941488	0.500152	0.621011
266888351	H	0.994308	0.537684	0.645375
266888351	H	0.0175858	0.460628	0.783748
266888351	F	0.0147589	0.57466	0.739676
266888351	C	0.0555133	0.363083	0.655764
266888351	O	0.070241	0.443327	0.765556
266888351	H	0.932693	0.551229	0.645591
266888351	C	0.0643503	0.500221	0.695916
266888351	O	0.0257802	0.380115	0.725086
266888351	O	0.0824925	0.424591	0.60526
266888351	F	0.983105	0.459667	0.725149
266888351	C	0.044813	0.529751	0.685408
266888351	H	0.0286158	0.51952	0.805817
266888351	Fe	0.960919	0.559773	0.797234
266888351	Fe	0.99889	0.5705	0.66445
266888351	H	0.95367	0.549885	0.760803
266888351	C	0.944479	0.387532	0.668599
266888351	O	0.975661	0.533637	0.79928
266888351	O	0.0147064	0.38613	0.683216
266888351	C	0.969263	0.417024	0.628211
266888351	O	0.0298848	0.500143	0.742273
266888351	O	0.984587	0.544435	0.654394
266888351	O	0.95395	0.539792	0.681703
266888351	O	0.937218	0.540145	0.795347
266888351	O	0.979177	0.424055	0.741513
266888351	C	0.0495889	0.514834	0.699707
266888351	C	0.0818056	0.36997	0.606526
266888351	C	0.0682213	0.51503	0.662174
266888351	C	0.970846	0.568045	0.617492
266888351	H	0.0519772	0.410717	0.685704
266888351	O	0.948258	0.577522	0.665569
266888351	H	0.962604	0.572328	0.762727
266888351	Fe	0.964189	0.450325	0.741037
266888351	C	0.9673	0.350183	0.834303
266888351	O	0.0575192	0.473242	0.793403
266888351	O	0.969255	0.484236	0.658936
266888351	O	0.96406	0.457335	0.791544
266888351	C	0.979398	0.490807	0.673568
266888351	C	0.968653	0.498186	0.692024
266888351	H	0.0217528	0.488288	0.743536
266888351	H	0.998401	0.385849	0.776748
266888351	C	0.93793	0.481164	0.730521
266888351	O	0.0704505	0.51908	0.738643
266888351	C	0.94663	0.398225	0.651874
266888351	H	0.988356	0.582331	0.785634
266888351	O	0.0850392	0.499845	0.635796
266888351	H	0.0694863	0.367732	0.74795
266888351	C	0.0199072	0.425773	0.755882
266888351	O	0.987957	0.575314	0.798808
266888351	C	0.0381338	0.427108	0.766174
266888351	C	0.978239	0.511446	0.704295
266888351	C	0.961077	0.382116	0.68081
266888351	O	0.996577	0.580939	0.833827
266888351	Fe	0.0581553	0.490855	0.751571
266888351	O	0.953349	0.42185	0.811937
266888351	C	0.981663	0.36613	0.828202
266888351	O	0.933572	0.405928	0.77649
266888351	C	0.00578391	0.410727	0.760766
266888351	H	0.981073	0.581094	0.616009
266888351	O	0.948733	0.443312	0.713609
266888351	H	0.94103	0.534427	0.685543
266888351	H	0.961009	0.432101	0.819233
266888351	C	0.983071	0.400773	0.65918
266888351	C	0.0292773	0.384278	0.803211
266888351	C	0.974217	0.551358	0.605017
266888351	O	0.982352	0.459593	0.763947
266888351	C	0.0522224	0.445476	0.763236
266888351	O	0.000668682	0.492892	0.671091
266888351	H	0.0208135	0.585409	0.636597
266888351	C	0.967267	0.520933	0.719813
266888351	O	0.985358	0.56793	0.691053
266888351	O	0.994331	0.367389	0.700482
266888351	O	0.994817	0.537095	0.826372
266888351	O	0.0687286	0.374312	0.784643
266888351	C	0.0187896	0.507538	0.803244
266888351	F	0.0861683	0.44553	0.804764
266888351	C	0.965951	0.405809	0.646869
266888351	Fe	0.948238	0.432236	0.783413
266888351	C	0.997568	0.380504	0.687383
266888351	C	0.992617	0.476948	0.792793
266888351	O	0.976951	0.587724	0.654674
266888351	C	0.0748036	0.488689	0.713163
266888351	C	0.0471967	0.489056	0.790365
266888351	C	0.0887206	0.371657	0.647738
266888351	C	0.0407913	0.413179	0.781774
266888351	O	0.0217607	0.552254	0.673178
266888351	C	0.932378	0.433822	0.709436
266888351	C	0.941677	0.496208	0.715834
266888351	C	0.0752211	0.352102	0.748895
266888351	C	0.960019	0.579785	0.651369
266888351	C	0.0667889	0.365736	0.620136
266888351	C	0.0292771	0.546019	0.688494
266888351	O	0.0467028	0.399088	0.596572
266888351	C	0.794801	0.346536	0.690567
266888351	H	0.88483	0.590701	0.786252
266888351	H	0.761843	0.37801	0.834617
266888351	O	0.928387	0.593671	0.820595
266888351	H	0.833211	0.478089	0.844539
266888351	Fe	0.918999	0.355456	0.892019
266888351	O	0.884833	0.385516	0.913634
266888351	O	0.892892	0.371236	0.883871
266888351	C	0.882844	0.384087	0.894958
266888351	C	0.870356	0.420208	0.892164
266888351	C	0.868898	0.399534	0.886337
266888351	C	0.843364	0.410351	0.86252
266888351	C	0.856244	0.394926	0.870494
266888351	H	0.856315	0.380268	0.864509
266888351	H	0.882924	0.42453	0.90222
266888351	O	0.851996	0.46869	0.876918
266888351	O	0.875627	0.462884	0.900232
266888351	C	0.862124	0.45676	0.888152
266888351	Fe	0.888774	0.490167	0.896642
266888351	O	0.902423	0.515661	0.89025
266888351	C	0.901529	0.53108	0.901271
266888351	O	0.886924	0.53443	0.912474
266888351	O	0.837487	0.527728	0.867969
266888351	O	0.854607	0.545198	0.890018
266888351	C	0.845366	0.543654	0.874026
266888351	O	0.891217	0.484811	0.865521
266888351	Fe	0.845044	0.497921	0.874045
266888351	O	0.862832	0.503802	0.895159
266888351	Fe	0.857893	0.525954	0.913279
266888351	O	0.851912	0.549705	0.932398
266888351	O	0.826447	0.520193	0.913914
266888351	O	0.821951	0.494668	0.893853
266888351	C	0.815058	0.507491	0.905528
266888351	F	0.912225	0.477405	0.896448
266888351	H	0.787068	0.482861	0.966276
266888351	C	0.920616	0.541334	0.902586
266888351	H	0.912919	0.568151	0.887775
266888351	C	0.844646	0.430014	0.869747
266888351	C	0.858346	0.435122	0.884515
266888351	C	0.822286	0.568941	0.872627
266888351	C	0.839516	0.561946	0.864502
266888351	H	0.810375	0.558747	0.875274
266888351	C	0.792754	0.508799	0.906282
266888351	O	0.892902	0.567495	0.927149
266888351	C	0.777744	0.457918	0.0321463
266888351	O	0.908341	0.399564	0.0670335
266888351	O	0.878295	0.371076	0.0620078
266888351	C	0.86745	0.383895	0.0707173
266888351	Fe	0.900042	0.371556	0.936706
266888351	O	0.91843	0.359916	0.958325
266888351	F	0.889868	0.390168	0.954532
266888351	C	0.854548	0.396528	0.0379979
266888351	C	0.861198	0.420104	0.0649411
266888351	C	0.858002	0.411893	0.0242301
266888351	C	0.867775	0.434224	0.0513869
266888351	C	0.86584	0.430437	0.0308591
266888351	C	0.857782	0.399731	0.0585304
266888351	H	0.851451	0.381123	0.0326556
266888351	H	0.896172	0.402903	0.0589968
266888351	O	0.849549	0.391394	0.996722
266888351	C	0.85539	0.408294	0.00266897
266888351	O	0.858777	0.423296	0.989096
266888351	H	0.85576	0.418682	0.975298
266888351	O	0.776199	0.474349	0.971998
266888351	O	0.892521	0.494818	0.928208
266888351	O	0.864365	0.508755	0.937504
266888351	C	0.882033	0.504237	0.941411
266888351	H	0.854101	0.561504	0.92479
266888351	H	0.837303	0.550517	0.934061
266888351	O	0.790088	0.541549	0.0524166
266888351	O	0.801742	0.504988	0.0692071
266888351	C	0.796002	0.487913	0.0723505
266888351	O	0.884163	0.57247	0.978519
266888351	O	0.906963	0.569147	0.00271088
266888351	C	0.897222	0.561512	0.987947
266888351	Fe	0.898945	0.491025	0.0515371
266888351	O	0.87993	0.467416	0.0537097
266888351	C	0.88259	0.449423	0.058563
266888351	O	0.897226	0.442753	0.0676148
266888351	O	0.901652	0.484917	0.0222713
266888351	O	0.921443	0.472688	0.0585251
266888351	Fe	0.920899	0.457175	0.0822035
266888351	C	0.915154	0.490388	0.0112507
266888351	F	0.87835	0.506929	0.0451153
266888351	C	0.899635	0.498371	0.975348
266888351	C	0.90957	0.526128	0.996094
266888351	C	0.891003	0.510888	0.961393
266888351	C	0.89972	0.540056	0.982947
266888351	C	0.89156	0.531824	0.965375
266888351	C	0.909738	0.504439	0.993425
266888351	H	0.913894	0.533009	0.0104878
266888351	H	0.885344	0.541339	0.954122
266888351	H	0.900061	0.482621	0.973467
266888351	C	0.917941	0.580006	0.947783
266888351	H	0.871015	0.440891	0.0203499
266888351	H	0.787643	0.501205	0.937843
266888351	C	0.896783	0.548284	0.0792406
266888351	C	0.863237	0.543901	0.0689649
266888351	C	0.882952	0.547867	0.0635417
266888351	H	0.852024	0.542454	0.0571247
266888351	H	0.912627	0.552633	0.0761106
266888351	C	0.784109	0.474775	0.0420985
266888351	C	0.785426	0.439156	0.0347476
266888351	C	0.797873	0.472879	0.0576575
266888351	C	0.799291	0.436565	0.0495967
266888351	H	0.83497	0.439815	0.863827
266888351	H	0.776927	0.488931	0.0401041
266888351	O	0.876161	0.353193	0.945121
266888351	H	0.782558	0.468136	0.983515
266888351	C	0.80453	0.453203	0.0615982
266888351	C	0.884571	0.561984	0.0464903
266888351	O	0.900226	0.572372	0.0434013
266888351	C	0.854845	0.576546	0.859445
266888351	O	0.909004	0.350199	0.917489
266888351	H	0.794608	0.555039	0.0528812
266888351	H	0.792476	0.516469	0.874834
266888351	O	0.86789	0.566845	0.0393069
266888351	O	0.846578	0.577244	0.993738
266888351	C	0.780431	0.504583	0.923691
266888351	C	0.900324	0.583078	0.934936
266888351	O	0.922117	0.367238	0.0534482
266888351	H	0.914615	0.412966	0.0691285
266888351	H	0.776194	0.543524	0.0505761
266888351	C	0.782739	0.512214	0.888381
266888351	C	0.822708	0.586688	0.882979
266888351	Fe	0.901519	0.352318	0.0726357
266888351	Fe	0.792178	0.531369	0.0819191
266888351	O	0.799173	0.400033	0.0443099
266888351	C	0.805185	0.416078	0.0550887
266888351	H	0.807493	0.388316	0.0484575
266888351	O	0.866043	0.501922	0.853061
266888351	H	0.813314	0.451113	0.0747682
266888351	H	0.861649	0.422943	0.0809352
266888351	H	0.777759	0.425632	0.028347
266888351	O	0.821947	0.539579	0.0818658
266888351	O	0.817193	0.412723	0.0692199
266888351	C	0.883018	0.493698	0.850922
266888351	C	0.832522	0.582689	0.00413236
266888351	O	0.790898	0.584686	0.900259
266888351	H	0.912626	0.539027	0.854679
266888351	H	0.82049	0.57817	0.964307
266888351	O	0.923763	0.391898	0.932483
266888351	O	0.92064	0.515701	0.0450168
266888351	O	0.891476	0.498931	0.0795263
266888351	O	0.786167	0.483391	0.0878647
266888351	H	0.923684	0.548233	0.941372
266888351	C	0.813251	0.586487	0.994692
266888351	C	0.857741	0.53986	0.0882369
266888351	H	0.84956	0.586877	0.954381
266888351	O	0.87023	0.388268	0.0884903
266888351	H	0.90304	0.583643	0.857195
266888351	C	0.925332	0.558354	0.891734
266888351	O	0.761382	0.523051	0.0820366
266888351	H	0.919736	0.366701	0.858102
266888351	H	0.924611	0.358316	0.0423696
266888351	O	0.825963	0.489019	0.85162
266888351	F	0.766903	0.5085	0.98834
266888351	C	0.811517	0.587746	0.973621
266888351	H	0.772812	0.59174	0.0774284
266888351	O	0.835187	0.589694	0.0217309
266888351	H	0.769264	0.586465	0.852589
266888351	O	0.783845	0.55934	0.0920461
266888351	C	0.829703	0.406777	0.845942
266888351	O	0.0837754	0.456846	0.0884429
266888351	H	0.0491336	0.484501	0.987159
266888351	C	0.928965	0.561453	0.94854
266888351	H	0.98172	0.346937	0.863372
266888351	H	0.0802808	0.410988	0.0814903
266888351	Fe	0.761873	0.58909	0.91179
266888351	C	0.0118194	0.404694	0.0923419
266888351	O	0.767213	0.354489	0.902544
266888351	O	0.761896	0.55922	0.917165
266888351	O	0.0442788	0.391731	0.859055
266888351	O	0.0559918	0.593649	0.852636
266888351	C	0.0487157	0.46767	0.038209
266888351	C	0.0764136	0.347492	0.0752974
266888351	Fe	0.904527	0.593957	0.0207797
266888351	H	0.931771	0.482011	0.936788
266888351	O	0.926701	0.540404	0.850512
266888351	H	0.815157	0.48292	0.860215
266888351	O	0.0649239	0.350524	0.0601126
266888351	C	0.959307	0.400505	0.0912869
266888351	O	0.816471	0.393749	0.847508
266888351	C	0.0514077	0.369194	0.928158
266888351	H	0.0900022	0.435829	0.972264
266888351	Fe	0.98077	0.556822	0.844657
266888351	H	0.76208	0.368547	0.904417
266888351	O	0.772946	0.592822	0.939895
266888351	H	0.97267	0.585368	0.90131
266888351	H	0.0930856	0.56937	0.081042
266888351	O	0.945451	0.501529	0.0585067
266888351	H	0.939472	0.372855	0.868822
266888351	Fe	0.0161026	0.383568	0.847989
266888351	O	0.0185089	0.486865	0.891982
266888351	O	0.0904856	0.554238	0.896812
266888351	H	0.0890372	0.560079	0.910261
266888351	O	0.000945406	0.583873	0.928238
266888351	H	0.866436	0.573119	0.848626
266888351	H	0.0919972	0.463952	0.0249615
266888351	H	0.983076	0.470113	0.0395156
266888351	H	0.086052	0.591029	0.0043228
266888351	O	0.931517	0.361153	0.865161
266888351	H	0.93072	0.514133	0.914497
266888351	O	0.937483	0.582666	0.858532
266888351	O	0.979381	0.543536	0.96208
266888351	C	0.76246	0.509271	0.886063
266888351	O	0.0447265	0.469942	0.0880344
266888351	O	0.0728817	0.407628	0.0935639
266888351	O	0.0745907	0.360551	0.0896416
266888351	H	0.0420199	0.542311	0.882184
266888351	H	0.977331	0.524939	0.860579
266888351	C	0.0935089	0.380142	0.879445
266888351	F	0.0189127	0.542673	0.976813
266888351	C	0.0350725	0.592973	0.887549
266888351	C	0.0428329	0.390202	0.0463547
266888351	Fe	0.00526895	0.498406	0.916722
266888351	C	0.988584	0.411872	0.91495
266888351	C	0.959422	0.547369	0.891765
266888351	C	0.0398691	0.55699	0.890244
266888351	O	0.0373753	0.381367	0.928007
266888351	C	0.0359221	0.490848	0.948945
266888351	C	0.0250477	0.4241	0.983551
266888351	O	0.0314506	0.375034	0.043117
266888351	C	0.0809761	0.580021	0.0816397
266888351	O	0.0289652	0.4054	0.0834735
266888351	F	0.0010583	0.551775	0.862806
266888351	C	0.992445	0.414338	0.0867358
266888351	O	0.901159	0.574693	0.8455
266888351	H	0.0774057	0.547617	0.893053
266888351	O	0.967669	0.587729	0.914673
266888351	O	0.991957	0.507391	0.941034
266888351	O	0.933147	0.381323	0.903136
266888351	H	0.0242554	0.589112	0.966956
266888351	O	0.985533	0.514204	0.901289
266888351	H	0.0290069	0.460023	0.00499939
266888351	O	0.0220707	0.382139	0.96405
266888351	C	0.945123	0.561415	0.885171
266888351	C	0.0613904	0.382497	0.859627
266888351	H	0.954476	0.581035	0.917505
266888351	H	0.00135059	0.439666	0.912284
266888351	C	0.0352808	0.594184	0.908558
266888351	O	0.974111	0.477948	0.0320232
266888351	C	0.998511	0.405498	0.932555
266888351	O	0.0414991	0.547627	0.0738269
266888351	C	0.946799	0.559919	0.959957
266888351	H	0.971593	0.386052	0.906575
266888351	C	0.961082	0.543153	0.955266
266888351	O	0.986591	0.472506	0.916372
266888351	C	0.00121824	0.365439	0.00528711
266888351	H	0.999678	0.480067	0.0804805
266888351	C	0.0350529	0.558295	0.910413
266888351	H	0.965725	0.576213	0.979284
266888351	C	0.977926	0.368973	0.0343431
266888351	F	0.0543494	0.522816	0.0132315
266888351	O	0.9327	0.485595	0.0173547
266888351	O	0.040271	0.419447	0.973543
266888351	C	0.972366	0.356912	0.0500758
266888351	O	0.954039	0.528677	0.945887
266888351	C	0.0681765	0.373855	0.974276
266888351	C	0.0733039	0.384467	0.878492
266888351	H	0.953138	0.355149	0.955584
266888351	H	0.995533	0.574116	0.937071
266888351	C	0.0889109	0.368506	0.91293
266888351	C	0.0556772	0.57735	0.862417
266888351	H	0.0492949	0.430136	0.0584633
266888351	O	0.952059	0.44534	0.0400898
266888351	O	0.968633	0.576556	0.864601
266888351	H	0.974999	0.548986	0.886262
266888351	C	0.95455	0.530954	0.903011
266888351	O	0.0124143	0.353544	0.994686
266888351	C	0.078949	0.455906	0.00178906
266888351	O	0.00833845	0.419507	0.976485
266888351	C	0.0104388	0.522666	0.0520278
266888351	C	0.0848768	0.360267	0.975465
266888351	O	0.0840377	0.470765	0.0142602
266888351	C	0.960621	0.471614	0.0894521
266888351	C	0.950097	0.575255	0.870018
266888351	Fe	0.0400218	0.521355	0.086947
266888351	O	0.0163101	0.543382	0.93823
266888351	C	0.00524865	0.349409	0.901698
266888351	O	0.962454	0.469886	0.0710341
266888351	C	0.975231	0.515289	0.00955691
266888351	O	0.0021386	0.383875	0.00181173
266888351	C	0.976023	0.462371	0.928074
266888351	O	0.965679	0.533242	0.856166
266888351	H	0.984756	0.382789	0.036176
266888351	H	0.972455	0.531434	0.0645597
266888351	O	0.0503417	0.356272	0.94235
266888351	C	0.991815	0.516129	0.0218356
266888351	O	0.070352	0.565891	0.860616
266888351	O	0.0524519	0.368273	0.983814
266888351	C	0.939145	0.514919	0.0479859
266888351	C	0.0312795	0.44572	0.0134077
266888351	C	0.97084	0.401316	0.910547
266888351	O	0.00512538	0.373994	0.875781
266888351	C	0.989472	0.355749	0.0624543
266888351	C	0.952368	0.433664	0.0559193
266888351	H	0.0379499	0.578012	0.936225
266888351	C	0.0633621	0.575402	0.070949
266888351	H	0.0342903	0.395858	0.0079942
266888351	Fe	0.0539566	0.514445	0.0400963
266888351	H	0.944793	0.520831	0.00764239
266888351	O	0.0256207	0.524717	0.0415922
266888351	O	0.0827435	0.506014	0.035001
266888351	H	0.943212	0.395528	0.0647353
266888351	C	0.957407	0.522036	0.0173614
266888351	C	0.0246292	0.540858	0.921152
266888351	Fe	0.0516537	0.384976	0.0881278
266888351	C	0.0445454	0.429282	0.0432718
266888351	H	0.975197	0.357472	0.894474
266888351	C	0.972854	0.528312	0.0492437
266888351	C	0.0470672	0.588088	0.0736053
266888351	C	0.0335423	0.409579	0.0155839
266888351	O	0.0661321	0.387131	0.960675
266888351	C	0.0632232	0.465862	0.942641
266888351	H	0.999979	0.423609	0.0579424
266888351	C	0.935125	0.393364	0.918034
266888351	O	0.965214	0.504024	0.975708
266888351	H	0.00831616	0.479367	0.884478
266888351	O	0.0302115	0.505962	0.959314
266888351	O	0.0639731	0.544139	0.0505843
266888351	F	0.972142	0.399506	0.980325
266888351	F	0.00903202	0.409582	0.853822
266888351	Fe	0.0395203	0.400924	0.950296
266888351	C	0.984636	0.346611	0.90292
266888351	C	0.986777	0.420521	0.0679218
266888351	H	0.938172	0.576378	0.0259311
266888351	C	0.0380716	0.576293	0.919892
266888351	C	0.935271	0.528801	0.90787
266888351	C	0.967312	0.514073	0.905861
266888351	O	0.991308	0.36786	0.0753405
266888351	C	0.984469	0.356857	0.0174708
266888351	H	0.0906245	0.539365	0.071378
266888351	H	0.0330004	0.584454	0.0651213
266888351	H	0.00510689	0.512247	0.0138526
266888351	Fe	0.946725	0.474951	0.0461077
266888351	C	0.0797102	0.447708	0.967896
266888351	Fe	0.0305737	0.354907	0.968923
266888351	C	0.971045	0.441874	0.920515
266888351	O	0.0324857	0.36437	0.0840986
266888351	C	0.0563506	0.554695	0.0644121
266888351	C	0.978948	0.50951	0.987941
266888351	Fe	0.033355	0.348399	0.0602953
266888351	O	0.0569744	0.419686	0.932767
266888351	C	0.951255	0.576201	0.97221
266888351	C	0.966575	0.416936	0.0605351
266888351	H	0.972829	0.471987	0.0184674
266888351	H	0.0624988	0.470666	0.926889
266888351	C	0.0717291	0.460019	0.981708
266888351	C	0.0675771	0.37283	0.912425
266888351	C	0.0619361	0.384611	0.896055
266888351	Fe	0.997111	0.390447	0.972313
266888351	C	0.991344	0.522726	0.041149
266888351	O	0.0623663	0.465994	0.0509527
266888351	O	0.024012	0.523254	0.913536
266888351	H	0.939718	0.436419	0.931227
266888351	C	0.0397032	0.409392	0.0351962
266888351	O	0.0327418	0.359249	0.882673
266888351	O	0.0121479	0.517833	0.0708196
266888351	O	0.0535036	0.504627	0.0669
266888351	O	0.93479	0.491136	0.948204
266888351	O	0.989245	0.39445	0.943769
266888351	C	0.0415371	0.575164	0.879303
266888351	C	0.987705	0.43186	0.913271
266888351	O	0.079694	0.437618	0.00802039
266888351	O	0.941226	0.437748	0.0706072
266888351	Fe	0.00554372	0.525313	0.959396
266888351	C	0.953479	0.430218	0.924068
266888351	C	0.0148005	0.362168	0.886212
266888351	O	0.997301	0.509453	0.982314
266888351	Fe	0.0693449	0.480646	0.0761457
266888351	H	0.0208718	0.498406	0.883578
266888351	C	0.955199	0.526257	0.037722
266888351	O	0.0439543	0.485451	0.0311884
266888351	C	0.989124	0.346137	0.961813
266888351	H	0.0502175	0.425854	0.920939
266888351	H	0.0685321	0.411994	0.928166
266888351	Fe	0.96338	0.500114	0.945598
266888351	O	0.93533	0.590547	0.0268567
266888351	O	0.0576802	0.389312	0.0582576
266888351	C	0.956939	0.402045	0.0707525
266888351	C	0.0569561	0.474907	0.97638
266888351	C	0.0283798	0.426434	0.00489912
266888351	C	0.0789658	0.45341	0.947883
266888351	O	0.969634	0.469962	0.944532
266888351	H	0.934408	0.481928	0.959907
266888351	H	0.0475717	0.390363	0.894235
266888351	O	0.984918	0.362959	0.968695
266888351	C	0.0408758	0.447201	0.0316203
266888351	C	0.0522766	0.477631	0.95593
266888351	O	0.961675	0.4994	0.915389
266888351	O	0.0144565	0.414092	0.938392
266888351	H	0.0858646	0.509637	0.0208524
266888351	O	0.0265759	0.484943	0.933278
266888351	C	0.952738	0.40923	0.917498
266888351	O	0.063283	0.365657	0.851085
266888351	O	0.0931594	0.481849	0.896707
266888351	O	0.765113	0.510862	0.850591
266888351	C	0.0937945	0.359808	0.993625
266888351	H	0.0910663	0.515044	0.0424739
266888351	H	0.0816748	0.472214	0.893859
266888351	H	0.0888831	0.487287	0.909742
266888351	H	0.0696355	0.345386	0.886763
266888351	O	0.0104087	0.593379	0.968685
266888351	C	0.997252	0.473974	0.0944923
266888351	H	0.00394257	0.586695	0.845713
266888351	H	0.771275	0.396375	0.844864
266888351	O	0.865738	0.755547	0.257505
266888351	H	0.862852	0.748053	0.245262
266888351	H	0.87853	0.761704	0.253696
266888351	O	0.905098	0.710254	0.183203
266888351	O	0.893302	0.736839	0.198598
266888351	C	0.894933	0.71766	0.196859
266888351	Fe	0.906231	0.758931	0.180598
266888351	O	0.887208	0.757054	0.155549
266888351	O	0.823681	0.751517	0.130063
266888351	O	0.847909	0.737495	0.147739
266888351	C	0.834959	0.751898	0.146083
266888351	Fe	0.857655	0.714023	0.129614
266888351	O	0.829691	0.703	0.135043
266888351	O	0.8851	0.725338	0.127728
266888351	C	0.813474	0.710558	0.129341
266888351	F	0.864523	0.700147	0.152346
266888351	O	0.822134	0.625237	0.220844
266888351	C	0.808589	0.629349	0.232611
266888351	O	0.864215	0.619802	0.21208
266888351	O	0.78607	0.689525	0.161169
266888351	C	0.800782	0.651647	0.259477
266888351	C	0.793569	0.657891	0.225206
266888351	C	0.805345	0.649135	0.238951
266888351	C	0.903222	0.679767	0.126602
266888351	H	0.891138	0.683845	0.135973
266888351	C	0.89052	0.683113	0.209174
266888351	C	0.89903	0.674582	0.243214
266888351	C	0.890838	0.703343	0.213848
266888351	C	0.897919	0.695024	0.248279
266888351	C	0.894417	0.709238	0.233684
266888351	C	0.895284	0.668585	0.224352
266888351	H	0.89685	0.725446	0.235882
266888351	H	0.887738	0.67824	0.193941
266888351	C	0.805467	0.726882	0.162582
266888351	C	0.799249	0.720704	0.143172
266888351	H	0.820549	0.723682	0.167114
266888351	H	0.872237	0.60795	0.156342
266888351	H	0.846377	0.755406	0.189344
266888351	H	0.889852	0.724065	0.1415
266888351	H	0.796811	0.678737	0.161926
266888351	O	0.806728	0.822457	0.300106
266888351	O	0.903614	0.641706	0.202099
266888351	C	0.898199	0.646972	0.219624
266888351	O	0.896146	0.631989	0.233542
266888351	O	0.815514	0.734532	0.204165
266888351	H	0.81962	0.740234	0.217215
266888351	O	0.847857	0.783354	0.230088
266888351	O	0.816402	0.790223	0.227238
266888351	C	0.832778	0.784979	0.21919
266888351	Fe	0.805933	0.806404	0.251632
266888351	O	0.779466	0.80891	0.234078
266888351	O	0.910253	0.757059	0.131824
266888351	C	0.893952	0.762676	0.138484
266888351	F	0.887359	0.775698	0.191335
266888351	O	0.782387	0.805652	0.156266
266888351	C	0.797966	0.812503	0.164772
266888351	O	0.777733	0.811273	0.112281
266888351	C	0.891254	0.795834	0.118863
266888351	C	0.883079	0.776801	0.125148
266888351	C	0.866256	0.770045	0.114583
266888351	H	0.901608	0.804187	0.127139
266888351	C	0.817461	0.781889	0.157601
266888351	C	0.839199	0.768672	0.183694
266888351	C	0.814579	0.798942	0.169442
266888351	C	0.833413	0.78427	0.196829
266888351	C	0.822208	0.800316	0.188274
266888351	C	0.832035	0.767847	0.162836
266888351	H	0.818629	0.812075	0.198739
266888351	H	0.809026	0.780304	0.143485
266888351	O	0.823492	0.762938	0.259059
266888351	Fe	0.907647	0.704803	0.310749
266888351	O	0.907004	0.690891	0.282737
266888351	C	0.899052	0.701338	0.268823
266888351	O	0.887383	0.714777	0.27412
266888351	O	0.852067	0.670645	0.317356
266888351	O	0.863832	0.676211	0.286544
266888351	C	0.858295	0.664536	0.300473
266888351	O	0.879619	0.700263	0.314224
266888351	Fe	0.86364	0.70704	0.291458
266888351	O	0.900565	0.733625	0.300941
266888351	O	0.847374	0.713591	0.264808
266888351	O	0.866898	0.736516	0.301551
266888351	C	0.883954	0.742121	0.307232
266888351	O	0.837102	0.703663	0.304215
266888351	C	0.834505	0.715398	0.31884
266888351	H	0.85485	0.705946	0.254524
266888351	H	0.834996	0.705505	0.26483
266888351	C	0.902027	0.769517	0.321206
266888351	C	0.886243	0.756808	0.323415
266888351	H	0.906164	0.77437	0.305758
266888351	C	0.818057	0.74031	0.29487
266888351	C	0.806623	0.756625	0.289862
266888351	C	0.821209	0.733639	0.314503
266888351	H	0.825203	0.732667	0.282887
266888351	C	0.866905	0.631846	0.316038
266888351	C	0.860769	0.642446	0.299489
266888351	C	0.855939	0.631524	0.282487
266888351	H	0.84998	0.640815	0.270658
266888351	H	0.861092	0.772399	0.296274
266888351	O	0.847431	0.773856	0.29196
266888351	O	0.843715	0.804996	0.30784
266888351	Fe	0.84799	0.780707	0.261542
266888351	O	0.83055	0.804097	0.26688
266888351	O	0.789704	0.82226	0.272962
266888351	O	0.796827	0.780474	0.265186
266888351	O	0.872936	0.799074	0.262707
266888351	C	0.875733	0.817207	0.268371
266888351	C	0.808022	0.765913	0.269445
266888351	O	0.77131	0.702891	0.193396
266888351	H	0.869067	0.614625	0.199477
266888351	H	0.85919	0.633571	0.209637
266888351	C	0.856725	0.610746	0.282495
266888351	H	0.797324	0.656117	0.209365
266888351	C	0.811768	0.744976	0.329352
266888351	O	0.844235	0.711719	0.334586
266888351	H	0.868163	0.638308	0.33064
266888351	C	0.783079	0.661586	0.265061
266888351	H	0.80938	0.643943	0.270412
266888351	O	0.884537	0.604555	0.148377
266888351	O	0.846336	0.610377	0.249245
266888351	C	0.920759	0.611348	0.111158
266888351	H	0.903605	0.604281	0.195204
266888351	O	0.90091	0.59985	0.181542
266888351	C	0.779174	0.724171	0.137319
266888351	O	0.810621	0.713178	0.110859
266888351	C	0.798776	0.742503	0.195752
266888351	H	0.77179	0.712001	0.205364
266888351	C	0.91561	0.60458	0.131532
266888351	C	0.792712	0.736117	0.175095
266888351	C	0.791112	0.827326	0.290719
266888351	O	0.865377	0.690921	0.11063
266888351	C	0.901059	0.681416	0.105801
266888351	H	0.902472	0.663604	0.255099
266888351	O	0.801271	0.830912	0.168763
266888351	O	0.897279	0.601406	0.137391
266888351	H	0.83306	0.804107	0.318402
266888351	Fe	0.834547	0.825288	0.287283
266888351	H	0.85452	0.811915	0.315463
266888351	H	0.909342	0.79558	0.265888
266888351	C	0.91258	0.811388	0.266968
266888351	C	0.869141	0.611107	0.315883
266888351	C	0.799326	0.76172	0.324643
266888351	C	0.895987	0.823922	0.269217
266888351	C	0.796368	0.766123	0.304808
266888351	H	0.858857	0.75581	0.119137
266888351	O	0.920086	0.781634	0.167633
266888351	O	0.916279	0.677466	0.321814
266888351	H	0.788147	0.778572	0.299859
266888351	C	0.91752	0.771244	0.335074
266888351	O	0.795981	0.616909	0.238793
266888351	O	0.84917	0.727411	0.103563
266888351	C	0.773666	0.634451	0.146106
266888351	Fe	0.866095	0.689367	0.336768
266888351	C	0.907737	0.66471	0.333331
266888351	O	0.862342	0.828481	0.276325
266888351	H	0.77456	0.719819	0.12324
266888351	O	0.816331	0.833866	0.240004
266888351	O	0.794179	0.661844	0.30041
266888351	C	0.774788	0.622103	0.127813
266888351	C	0.774137	0.662167	0.230319
266888351	O	0.780705	0.651765	0.14557
266888351	O	0.775198	0.681462	0.118292
266888351	O	0.790297	0.757243	0.204194
266888351	Fe	0.841349	0.601634	0.22192
266888351	C	0.922084	0.680525	0.13475
266888351	O	0.890467	0.837339	0.209253
266888351	C	0.849613	0.600037	0.264758
266888351	C	0.789196	0.821447	0.100533
266888351	H	0.786802	0.672919	0.116736
266888351	O	0.922254	0.715855	0.136742
266888351	H	0.778103	0.830333	0.329802
266888351	H	0.777147	0.690771	0.198455
266888351	Fe	0.82134	0.738966	0.101265
266888351	C	0.881674	0.691399	0.0996104
266888351	C	0.772232	0.737781	0.169279
266888351	C	0.781147	0.601934	0.126746
266888351	H	0.895704	0.832624	0.222249
266888351	H	0.89943	0.828835	0.200962
266888351	H	0.784042	0.816245	0.22206
266888351	O	0.792435	0.751151	0.0989452
266888351	O	0.793474	0.839968	0.104311
266888351	O	0.925864	0.740468	0.169265
266888351	H	0.897478	0.618528	0.226863
266888351	O	0.925248	0.764433	0.202461
266888351	C	0.862462	0.600177	0.299323
266888351	H	0.789215	0.665551	0.313788
266888351	C	0.765537	0.728116	0.152339
266888351	C	0.92116	0.647	0.340046
266888351	O	0.801028	0.60153	0.197243
266888351	C	0.768726	0.630564	0.109517
266888351	O	0.909886	0.717392	0.33812
266888351	H	0.770889	0.818284	0.241624
266888351	C	0.778957	0.663572	0.286962
266888351	C	0.00559909	0.836579	0.227135
266888351	C	0.876709	0.60049	0.334282
266888351	C	0.926252	0.699236	0.145385
266888351	H	0.890941	0.608857	0.099067
266888351	H	0.0801974	0.721276	0.256313
266888351	H	0.839393	0.604874	0.184239
266888351	H	0.765375	0.680519	0.107107
266888351	C	0.861743	0.777901	0.095965
266888351	H	0.769369	0.723511	0.33906
266888351	C	0.883702	0.804793	0.101737
266888351	H	0.921058	0.709878	0.343821
266888351	C	0.0172551	0.789538	0.0962673
266888351	O	0.0250767	0.835541	0.232753
266888351	Fe	0.762534	0.675538	0.145944
266888351	H	0.0912884	0.827064	0.146283
266888351	O	0.0903615	0.646829	0.343805
266888351	H	0.763522	0.645474	0.10938
266888351	H	0.78717	0.595798	0.140913
266888351	C	0.768227	0.665073	0.250392
266888351	C	0.0902192	0.59831	0.294706
266888351	O	0.772305	0.842302	0.140706
266888351	H	0.949237	0.843222	0.277922
266888351	H	0.790499	0.756963	0.112205
266888351	H	0.0500941	0.595295	0.320086
266888351	O	0.00615306	0.691601	0.0957665
266888351	O	0.881406	0.839526	0.0947859
266888351	O	0.761533	0.665152	0.292873
266888351	H	0.94067	0.824707	0.339508
266888351	O	0.76298	0.596971	0.214896
266888351	C	0.882618	0.750687	0.342762
266888351	H	0.967052	0.84422	0.220098
266888351	O	0.0169647	0.839	0.150758
266888351	H	0.935557	0.740304	0.105472
266888351	O	0.955582	0.82645	0.340308
266888351	H	0.929483	0.818757	0.178555
266888351	C	0.0912933	0.612077	0.276769
266888351	C	0.0908762	0.703466	0.316444
266888351	O	0.961808	0.699105	0.241314
266888351	C	0.982218	0.768107	0.236247
266888351	O	0.0927516	0.692946	0.0992991
266888351	C	0.0647894	0.607349	0.0989366
266888351	Fe	0.997541	0.780004	0.134755
266888351	C	0.991126	0.699644	0.144976
266888351	H	0.957265	0.840968	0.337062
266888351	Fe	0.00871502	0.785104	0.293358
266888351	O	0.0155499	0.799468	0.141931
266888351	C	0.931228	0.817787	0.271769
266888351	O	0.0227783	0.629318	0.103041
266888351	H	0.0219348	0.693702	0.229475
266888351	C	0.937379	0.674699	0.103876
266888351	C	0.086782	0.78282	0.12832
266888351	O	0.774386	0.783384	0.334364
266888351	O	0.071907	0.723593	0.337305
266888351	Fe	0.0317119	0.792737	0.164217
266888351	O	0.000554623	0.627014	0.287085
266888351	H	0.952581	0.682665	0.195536
266888351	H	0.956403	0.733365	0.111773
266888351	H	0.933886	0.596702	0.250005
266888351	C	0.992399	0.775418	0.219507
266888351	H	0.0304861	0.823196	0.226628
266888351	C	0.986117	0.666156	0.253311
266888351	H	0.0886756	0.651264	0.289835
266888351	O	0.0606461	0.680107	0.238851
266888351	C	0.937256	0.806055	0.149372
266888351	H	0.0282209	0.719191	0.118526
266888351	Fe	0.00235689	0.600415	0.302801
266888351	C	0.996793	0.748345	0.313188
266888351	O	0.95425	0.611435	0.294677
266888351	H	0.062312	0.686305	0.116588
266888351	C	0.0284678	0.669578	0.24932
266888351	O	0.946601	0.744278	0.113411
266888351	F	0.934465	0.710117	0.306116
266888351	C	0.00685535	0.699676	0.131064
266888351	H	0.0246628	0.819618	0.285686
266888351	H	0.961521	0.763531	0.18296
266888351	O	0.982078	0.756147	0.269771
266888351	O	0.0190298	0.75998	0.131013
266888351	O	0.0854179	0.65295	0.21428
266888351	C	0.0103396	0.800262	0.338189
266888351	O	0.990738	0.773524	0.165028
266888351	O	0.0557036	0.649133	0.246351
266888351	O	0.0535132	0.790653	0.144695
266888351	H	0.0450868	0.795529	0.197271
266888351	C	0.995047	0.781672	0.181983
266888351	H	0.947391	0.614643	0.241959
266888351	H	0.929582	0.6811	0.201857
266888351	H	0.0296611	0.644002	0.269377
266888351	C	0.955238	0.759652	0.214209
266888351	H	0.0385981	0.767634	0.281014
266888351	O	0.00828418	0.755638	0.300007
266888351	C	0.0906332	0.749419	0.142926
266888351	H	0.0803045	0.687303	0.34111
266888351	O	0.929515	0.603277	0.144688
266888351	C	0.966521	0.766843	0.198375
266888351	C	0.976585	0.817734	0.127803
266888351	C	0.00637399	0.685822	0.114209
266888351	O	0.95203	0.784189	0.336361
266888351	C	0.941508	0.840857	0.158091
266888351	F	0.940933	0.609804	0.186063
266888351	O	0.0496565	0.785002	0.187824
266888351	H	0.976215	0.832427	0.297829
266888351	H	0.0877313	0.683137	0.173612
266888351	C	0.0920161	0.688867	0.330462
266888351	O	0.00203203	0.78283	0.104858
266888351	C	0.941242	0.61305	0.105709
266888351	C	0.93486	0.838094	0.274007
266888351	O	0.0379799	0.821717	0.169343
266888351	O	0.991869	0.79995	0.34156
266888351	C	0.0312059	0.838329	0.163011
266888351	O	0.00118978	0.780973	0.263537
266888351	C	0.0911081	0.770936	0.14482
266888351	O	0.985259	0.828766	0.30854
266888351	C	0.060997	0.803773	0.134056
266888351	H	0.0514013	0.771377	0.102381
266888351	O	0.950264	0.787346	0.27398
266888351	C	0.0801787	0.721945	0.320217
266888351	C	0.004867	0.748774	0.333458
266888351	C	0.938184	0.775288	0.326641
266888351	C	0.99932	0.653105	0.262312
266888351	O	0.981387	0.622283	0.261318
266888351	C	0.99226	0.63327	0.271515
266888351	O	0.0103624	0.815687	0.285413
266888351	H	0.0683118	0.836889	0.169924
266888351	C	0.0819886	0.802386	0.130699
266888351	O	0.0831257	0.737299	0.309687
266888351	C	0.0915705	0.810854	0.146688
266888351	O	0.991845	0.827608	0.12115
266888351	H	0.0352653	0.746657	0.324955
266888351	C	0.0247981	0.751161	0.146218
266888351	H	0.927433	0.641513	0.309844
266888351	Fe	0.965956	0.597999	0.26722
266888351	O	0.941326	0.768058	0.310159
266888351	Fe	0.993631	0.641899	0.103286
266888351	C	0.0156557	0.6844	0.240494
266888351	C	0.0494891	0.666149	0.244853
266888351	Fe	0.0211731	0.823167	0.125221
266888351	O	0.961496	0.729652	0.150913
266888351	O	0.0383134	0.782048	0.284413
266888351	H	0.952444	0.610983	0.116508
266888351	C	0.957025	0.826593	0.12829
266888351	O	0.0243722	0.806513	0.0998408
266888351	H	0.00727315	0.781266	0.222366
266888351	C	0.98517	0.774715	0.200394
266888351	H	0.95528	0.754892	0.245561
266888351	H	0.00831593	0.814536	0.270961
266888351	O	0.999366	0.825707	0.212811
266888351	H	0.0573866	0.699003	0.136581
266888351	Fe	0.933544	0.71599	0.184127
266888351	O	0.00535848	0.666487	0.118677
266888351	O	0.940878	0.609372	0.253613
266888351	C	0.934748	0.785046	0.155787
266888351	O	0.948567	0.809571	0.29929
266888351	Fe	0.084151	0.716348	0.115432
266888351	C	0.989476	0.768344	0.257477
266888351	H	0.97041	0.662652	0.251958
266888351	O	0.07648	0.619509	0.266779
266888351	H	0.0667269	0.618882	0.210342
266888351	O	0.0586218	0.699914	0.12205
266888351	C	0.994254	0.683143	0.243731
266888351	H	0.0655302	0.674477	0.27831
266888351	C	0.990728	0.713844	0.160425
266888351	O	0.977485	0.747928	0.311557
266888351	C	0.0243555	0.831253	0.336512
266888351	H	0.0621775	0.697971	0.275833
266888351	H	0.95592	0.711359	0.238142
266888351	C	0.963134	0.760204	0.232962
266888351	O	0.933611	0.733241	0.209999
266888351	O	0.0181962	0.79384	0.321681
266888351	Fe	0.934462	0.742699	0.142639
266888351	C	0.945395	0.804456	0.281427
266888351	O	0.945032	0.77014	0.148052
266888351	H	0.0057024	0.736361	0.17596
266888351	O	0.990498	0.715388	0.231324
266888351	O	0.981148	0.786138	0.302111
266888351	C	0.982209	0.699762	0.237904
266888351	F	0.978784	0.761088	0.127094
266888351	C	0.93851	0.674789	0.12455
266888351	O	0.963177	0.720299	0.182767
266888351	Fe	0.0887038	0.684394	0.250079
266888351	F	0.946214	0.745858	0.280947
266888351	C	0.0199885	0.729569	0.147669
266888351	O	0.008347	0.793984	0.183932
266888351	O	0.0825682	0.713556	0.243545
266888351	H	0.95259	0.67246	0.13187
266888351	C	0.960567	0.613318	0.313035
266888351	C	0.93546	0.821102	0.163361
266888351	C	0.00717067	0.725697	0.163806
266888351	C	0.971246	0.722121	0.165733
266888351	O	0.965624	0.655154	0.103216
266888351	O	0.051127	0.819953	0.128958
266888351	O	0.977203	0.800445	0.135434
266888351	H	0.0836131	0.775785	0.113958
266888351	C	0.0253454	0.751708	0.336569
266888351	O	0.940681	0.690447	0.200753
266888351	C	0.947764	0.62395	0.329256
266888351	H	0.0643995	0.619753	0.107594
266888351	O	0.0654979	0.615589	0.225045
266888351	H	0.0476166	0.783673	0.295821
266888351	H	0.941375	0.799983	0.118997
266888351	O	0.977396	0.606624	0.317882
266888351	C	0.0199506	0.656272	0.262153
266888351	H	0.0723631	0.603256	0.226461
266888351	Fe	0.0811635	0.6363	0.2407
266888351	H	0.0246517	0.828785	0.320104
266888351	C	0.936594	0.751626	0.211153
266888351	F	0.0164374	0.61305	0.322269
266888351	O	0.0770993	0.741885	0.1324
266888351	C	0.931534	0.637783	0.324902
266888351	C	0.0198134	0.716536	0.131137
266888351	O	0.0275011	0.761256	0.161882
266888351	Fe	0.96323	0.765905	0.291498
266888351	C	0.942745	0.811484	0.12995
266888351	H	0.978335	0.691328	0.141194
266888351	O	0.0729854	0.687415	0.276792
266888351	F	0.988311	0.630942	0.128568
266888351	O	0.936437	0.698152	0.160831
266888351	Fe	0.969191	0.805224	0.320988
266888351	H	0.0419757	0.77224	0.191437
266888351	C	0.905791	0.611881	0.0961902
266888351	C	0.95462	0.843454	0.14104
266888351	O	0.889714	0.666651	0.339133
266888351	H	0.765739	0.602463	0.201182
266888351	C	0.787585	0.771503	0.339693
266888351	C	0.0933992	0.78016	0.163387
266888351	C	0.0821311	0.595029	0.0964462
266888351	H	0.996624	0.68558	0.342649
266888351	C	0.776944	0.841409	0.299591
266888351	C	0.77261	0.841554	0.320181
266888351	O	0.0937724	0.824244	0.191115
266888351	O	0.888967	0.744081	0.0946022
266888351	C	0.0940295	0.800354	0.164344
266888351	H	0.094285	0.719703	0.236571
266888351	C	0.899962	0.844345	0.272121
266888351	H	0.900135	0.734468	0.0969559
266888351	O	0.779244	0.699344	0.384964
266888351	C	0.780024	0.688743	0.400265
266888351	O	0.846953	0.736175	0.4172
266888351	O	0.863015	0.709289	0.406414
266888351	C	0.847497	0.71817	0.413598
266888351	Fe	0.892568	0.714191	0.409764
266888351	O	0.895465	0.731952	0.383853
266888351	Fe	0.869198	0.757878	0.420458
266888351	O	0.889211	0.737236	0.426478
266888351	O	0.877407	0.758779	0.390375
266888351	C	0.888168	0.748074	0.379086
266888351	F	0.895867	0.692121	0.394025
266888351	O	0.782401	0.61223	0.402364
266888351	H	0.915767	0.650462	0.372346
266888351	C	0.798359	0.689907	0.412334
266888351	C	0.829751	0.706373	0.420074
266888351	C	0.81505	0.701492	0.406808
266888351	H	0.816652	0.705127	0.391294
266888351	C	0.894673	0.756338	0.359178
266888351	O	0.888034	0.780964	0.424869
266888351	O	0.847063	0.778432	0.415039
266888351	H	0.851735	0.792078	0.419605
266888351	H	0.843046	0.776963	0.400743
266888351	O	0.788665	0.821633	0.424973
266888351	C	0.783669	0.805999	0.415161
266888351	O	0.781192	0.806062	0.396288
266888351	O	0.798041	0.816982	0.359106
266888351	C	0.780194	0.769366	0.413644
266888351	C	0.913654	0.624779	0.439686
266888351	Fe	0.908669	0.7397	0.44845
266888351	O	0.890239	0.694743	0.431913
266888351	O	0.910821	0.709585	0.452998
266888351	C	0.900827	0.694435	0.447172
266888351	O	0.885956	0.735809	0.468032
266888351	C	0.918517	0.654775	0.508637
266888351	O	0.912777	0.641734	0.521065
266888351	Fe	0.908638	0.646122	0.551846
266888351	O	0.907441	0.696266	0.539369
266888351	O	0.885937	0.625387	0.547021
266888351	O	0.890291	0.667576	0.545026
266888351	C	0.890973	0.686218	0.541903
266888351	O	0.857146	0.749082	0.561598
266888351	C	0.843336	0.736278	0.563852
266888351	F	0.896765	0.756602	0.566283
266888351	O	0.841411	0.635085	0.504823
266888351	O	0.8283	0.623286	0.475481
266888351	Fe	0.801759	0.638689	0.472017
266888351	O	0.774519	0.651783	0.464505
266888351	O	0.77523	0.655331	0.531872
266888351	C	0.77694	0.637507	0.539641
266888351	O	0.786416	0.615493	0.480651
266888351	Fe	0.814694	0.631219	0.519064
266888351	O	0.800537	0.647324	0.499581
266888351	Fe	0.784629	0.669409	0.505622
266888351	O	0.8179	0.66418	0.46602
266888351	O	0.793268	0.683255	0.477325
266888351	C	0.807678	0.680188	0.465062
266888351	O	0.808861	0.680899	0.517372
266888351	O	0.822005	0.656119	0.535288
266888351	C	0.82029	0.674238	0.530798
266888351	F	0.803067	0.629033	0.446257
266888351	C	0.899066	0.657472	0.447802
266888351	C	0.91008	0.637211	0.476576
266888351	C	0.902961	0.675083	0.458002
266888351	C	0.912314	0.654845	0.487512
266888351	C	0.90791	0.673944	0.477938
266888351	C	0.905605	0.63894	0.455623
266888351	H	0.896599	0.658284	0.431577
266888351	C	0.796891	0.685137	0.432316
266888351	C	0.827718	0.700793	0.440123
266888351	C	0.809984	0.691139	0.446
266888351	H	0.839458	0.704065	0.450979
266888351	H	0.784938	0.67493	0.436941
266888351	C	0.855408	0.68244	0.533901
266888351	C	0.846491	0.717494	0.552751
266888351	C	0.872016	0.694575	0.540486
266888351	C	0.866716	0.712415	0.548873
266888351	H	0.87849	0.722427	0.553191
266888351	H	0.889306	0.745255	0.478956
266888351	H	0.850456	0.627041	0.513815
266888351	H	0.826798	0.609898	0.468683
266888351	O	0.905168	0.769951	0.449839
266888351	C	0.896902	0.78383	0.441109
266888351	O	0.860305	0.757865	0.450199
266888351	H	0.853689	0.744758	0.45278
266888351	O	0.870609	0.787296	0.572842
266888351	O	0.838172	0.782759	0.569351
266888351	C	0.8538	0.792637	0.565872
266888351	C	0.783069	0.785617	0.445844
266888351	C	0.782826	0.786531	0.425002
266888351	H	0.785123	0.799118	0.454269
266888351	C	0.860099	0.828161	0.46646
266888351	C	0.887704	0.822064	0.445756
266888351	C	0.861514	0.808141	0.472585
266888351	C	0.889176	0.802019	0.452552
266888351	C	0.876682	0.796198	0.467259
266888351	H	0.898991	0.828174	0.435761
266888351	H	0.87733	0.78081	0.474059
266888351	C	0.864636	0.821908	0.544113
266888351	C	0.829838	0.814216	0.548053
266888351	C	0.850413	0.809888	0.552708
266888351	H	0.817791	0.809363	0.557625
266888351	H	0.880091	0.820443	0.548765
266888351	H	0.850504	0.768932	0.451016
266888351	O	0.848172	0.780389	0.492529
266888351	C	0.845808	0.798327	0.48492
266888351	O	0.828997	0.808158	0.48766
266888351	H	0.820483	0.801568	0.497777
266888351	H	0.83879	0.630223	0.467775
266888351	C	0.776655	0.76771	0.455613
266888351	C	0.774353	0.752154	0.422882
266888351	O	0.879418	0.707303	0.356696
266888351	H	0.916616	0.624008	0.482271
266888351	C	0.774725	0.750333	0.44416
266888351	H	0.888745	0.697265	0.362823
266888351	C	0.875046	0.835889	0.454974
266888351	C	0.912832	0.766939	0.355279
266888351	H	0.793766	0.603137	0.400101
266888351	O	0.851038	0.678005	0.361875
266888351	O	0.918127	0.752534	0.527489
266888351	O	0.828917	0.740104	0.574177
266888351	Fe	0.779174	0.830627	0.378949
266888351	O	0.790079	0.626151	0.5342
266888351	O	0.911125	0.606418	0.438989
266888351	C	0.83087	0.706259	0.546683
266888351	C	0.835343	0.687599	0.538215
266888351	O	0.830481	0.613528	0.538629
266888351	H	0.909441	0.687153	0.485803
266888351	H	0.875114	0.632674	0.539685
266888351	H	0.858432	0.668755	0.524327
266888351	H	0.889554	0.613312	0.539387
266888351	O	0.897746	0.651413	0.580428
266888351	O	0.808018	0.605329	0.503793
266888351	H	0.816482	0.709811	0.550676
266888351	Fe	0.875233	0.758423	0.583527
266888351	O	0.791175	0.767841	0.359616
266888351	H	0.781735	0.77685	0.367147
266888351	O	0.921096	0.724614	0.50777
266888351	H	0.904278	0.746816	0.529162
266888351	C	0.794797	0.601575	0.490653
266888351	H	0.848181	0.836932	0.473453
266888351	H	0.780027	0.769973	0.397244
266888351	H	0.808057	0.810213	0.367275
266888351	H	0.86822	0.71114	0.365165
266888351	O	0.775106	0.724745	0.352471
266888351	H	0.903839	0.838657	0.499314
266888351	C	0.824141	0.82726	0.532217
266888351	H	0.916432	0.833025	0.51702
266888351	H	0.785212	0.617259	0.416001
266888351	C	0.858847	0.835503	0.528894
266888351	O	0.767642	0.69422	0.513872
266888351	H	0.85913	0.678358	0.374008
266888351	H	0.851171	0.663857	0.358177
266888351	H	0.924222	0.770057	0.366499
266888351	C	0.805591	0.837961	0.530432
266888351	O	0.765365	0.680534	0.407792
266888351	H	0.831054	0.600667	0.531343
266888351	O	0.799869	0.774271	0.583258
266888351	O	0.923989	0.714866	0.410347
266888351	O	0.924122	0.632994	0.42671
266888351	H	0.769494	0.73696	0.451097
266888351	O	0.927455	0.623712	0.557908
266888351	H	0.805094	0.827254	0.351577
266888351	C	0.839217	0.835113	0.521541
266888351	F	0.769695	0.741895	0.523776
266888351	C	0.924766	0.642632	0.360284
266888351	O	0.79768	0.840346	0.513803
266888351	O	0.917523	0.841319	0.505403
266888351	H	0.770193	0.596936	0.549891
266888351	H	0.771543	0.696865	0.527128
266888351	H	0.0444422	0.633845	0.354766
266888351	H	0.821812	0.610106	0.550676
266888351	H	0.771989	0.706221	0.506068
266888351	C	0.765317	0.735681	0.410796
266888351	H	0.799868	0.770286	0.569197
266888351	O	0.764319	0.753134	0.486009
266888351	O	0.76143	0.737484	0.392127
266888351	C	0.765804	0.768062	0.474028
266888351	H	0.893686	0.690619	0.590149
266888351	H	0.933125	0.840978	0.458547
266888351	H	0.812929	0.742117	0.344728
266888351	Fe	0.828245	0.765501	0.591896
266888351	H	0.774231	0.778792	0.516839
266888351	H	0.801107	0.78809	0.581089
266888351	O	0.901875	0.84372	0.588851
266888351	H	0.93073	0.759015	0.473731
266888351	O	0.992899	0.600642	0.425396
266888351	O	0.88221	0.612163	0.350397
266888351	C	0.958825	0.84391	0.497859
266888351	H	0.785517	0.714841	0.352716
266888351	H	0.0475949	0.603161	0.510856
266888351	H	0.835114	0.843903	0.508439
266888351	C	0.0143394	0.84335	0.548616
266888351	C	0.938446	0.726688	0.589735
266888351	C	0.762663	0.628869	0.554602
266888351	C	0.0082796	0.720805	0.565205
266888351	O	0.0882149	0.810756	0.366866
266888351	H	0.975869	0.747279	0.349219
266888351	C	0.0316329	0.762067	0.353394
266888351	O	0.987333	0.775319	0.396023
266888351	O	0.0400381	0.717548	0.465556
266888351	O	0.0931826	0.644408	0.546738
266888351	C	0.937931	0.726328	0.416634
266888351	C	0.761781	0.607892	0.557633
266888351	O	0.0624783	0.780183	0.34954
266888351	O	0.929796	0.665477	0.557256
266888351	C	0.991746	0.752072	0.348971
266888351	O	0.983803	0.629809	0.435761
266888351	C	0.0898882	0.790788	0.440937
266888351	O	0.761925	0.843482	0.39924
266888351	H	0.056088	0.840628	0.583547
266888351	H	0.0849108	0.810402	0.381663
266888351	C	0.0220649	0.814856	0.348642
266888351	O	0.053904	0.756349	0.460878
266888351	C	0.963311	0.59713	0.538602
266888351	O	0.085425	0.77481	0.382367
266888351	O	0.929311	0.610913	0.395053
266888351	C	0.9971	0.617775	0.430976
266888351	C	0.0526903	0.764803	0.356664
266888351	O	0.00266325	0.804511	0.57612
266888351	O	0.970216	0.67703	0.569809
266888351	Fe	0.0616479	0.843166	0.46737
266888351	O	0.0799428	0.710294	0.457379
266888351	F	0.0660801	0.703016	0.41811
266888351	O	0.929156	0.669535	0.514061
266888351	C	0.950074	0.761679	0.5927
266888351	C	0.0232175	0.816336	0.369638
266888351	H	0.887699	0.603775	0.360475
266888351	C	0.0339655	0.615463	0.422092
266888351	C	0.985132	0.734635	0.503536
266888351	O	0.055401	0.725249	0.504146
266888351	C	0.964328	0.731548	0.501654
266888351	H	0.0875399	0.669616	0.373389
266888351	O	0.956538	0.636291	0.564855
266888351	C	0.0605962	0.759014	0.519065
266888351	C	0.0727325	0.791991	0.542539
266888351	C	0.961652	0.715272	0.389689
266888351	C	0.0560064	0.780446	0.548862
266888351	H	0.072251	0.659633	0.38973
266888351	C	0.0275198	0.638954	0.574142
266888351	O	0.0273626	0.598731	0.572947
266888351	H	0.0429524	0.791343	0.469449
266888351	H	0.090383	0.710221	0.508842
266888351	C	0.951482	0.620458	0.350024
266888351	Fe	0.0853855	0.734522	0.360612
266888351	C	0.94537	0.627586	0.552354
266888351	H	0.0388155	0.630791	0.580966
266888351	C	0.997735	0.759475	0.367067
266888351	O	0.96128	0.789976	0.573719
266888351	C	0.940656	0.63003	0.365812
266888351	C	0.0708795	0.717399	0.587855
266888351	O	0.945369	0.704834	0.562799
266888351	O	0.0529808	0.680965	0.447037
266888351	C	0.0130754	0.723437	0.426562
266888351	Fe	0.979523	0.812941	0.562811
266888351	F	0.0745315	0.712934	0.375036
266888351	Fe	0.0699193	0.687907	0.558989
266888351	C	0.0531964	0.622979	0.423591
266888351	C	0.0741752	0.806894	0.44476
266888351	C	0.962552	0.825427	0.48906
266888351	C	0.0219255	0.638513	0.447936
266888351	O	0.928324	0.744077	0.472205
266888351	O	0.0012679	0.731492	0.474416
266888351	O	0.0398457	0.841555	0.448094
266888351	H	0.0301991	0.601385	0.414843
266888351	H	0.94085	0.73791	0.465892
266888351	O	0.991178	0.768179	0.558959
266888351	C	0.978644	0.84213	0.462138
266888351	C	0.978513	0.67164	0.553296
266888351	C	0.997369	0.715538	0.393375
266888351	O	0.0570269	0.737845	0.4344
266888351	O	0.0732686	0.815229	0.461712
266888351	H	0.00858117	0.750572	0.517382
266888351	H	0.998688	0.767258	0.459633
266888351	H	0.0210878	0.802484	0.378683
266888351	C	0.0773725	0.770785	0.513656
266888351	H	0.954812	0.664785	0.422384
266888351	O	0.0909049	0.690174	0.537668
266888351	O	0.973611	0.830233	0.587168
266888351	C	0.0832341	0.700285	0.473144
266888351	O	0.0446732	0.801627	0.576828
266888351	C	0.950747	0.744604	0.512405
266888351	H	0.974707	0.732942	0.435387
266888351	O	0.0161021	0.739109	0.436479
266888351	H	0.988856	0.634131	0.540487
266888351	C	0.0830577	0.787235	0.525302
266888351	C	0.028765	0.837132	0.399833
266888351	H	0.945001	0.662874	0.443155
266888351	C	0.0229765	0.72336	0.580956
266888351	O	0.0717006	0.608445	0.349386
266888351	H	0.94939	0.711524	0.380523
266888351	C	0.0560703	0.733914	0.590213
266888351	Fe	0.0531649	0.709665	0.441391
266888351	H	0.94288	0.820013	0.556441
266888351	C	0.939735	0.70512	0.580838
266888351	H	0.952642	0.839566	0.551801
266888351	O	0.0258147	0.821888	0.410816
266888351	O	0.0218447	0.786832	0.432256
266888351	C	0.979167	0.762221	0.526903
266888351	H	0.0449766	0.670345	0.505356
266888351	H	0.0638755	0.663684	0.531992
266888351	C	0.980291	0.711568	0.380947
266888351	O	0.0522262	0.646368	0.358007
266888351	H	0.95022	0.769884	0.533311
266888351	C	0.0428683	0.670302	0.58727
266888351	C	0.0264089	0.658617	0.579074
266888351	H	0.0119128	0.712966	0.388015
266888351	C	0.066815	0.616556	0.407557
266888351	O	0.0116892	0.769665	0.465669
266888351	H	0.0289723	0.779956	0.421283
266888351	O	0.999327	0.695102	0.353558
266888351	O	0.0874628	0.672553	0.576767
266888351	C	0.0507863	0.744037	0.505463
266888351	O	0.00457792	0.822304	0.449131
266888351	Fe	0.953623	0.62815	0.431555
266888351	C	0.942318	0.622641	0.388066
266888351	H	0.0228325	0.768235	0.384963
266888351	O	0.973783	0.602155	0.465303
266888351	C	0.0893523	0.774181	0.454177
266888351	C	0.995098	0.839401	0.447907
266888351	O	0.954181	0.825322	0.548922
266888351	C	0.953408	0.621477	0.51369
266888351	H	0.0240344	0.803239	0.476628
266888351	C	0.0187156	0.608938	0.55868
266888351	C	0.985806	0.77608	0.542324
266888351	H	0.00875519	0.773049	0.479468
266888351	H	0.963346	0.740813	0.572733
266888351	H	0.0752881	0.80674	0.550331
266888351	C	0.928763	0.739746	0.515556
266888351	C	0.981997	0.765566	0.381505
266888351	Fe	0.937774	0.685071	0.539242
266888351	F	0.0530166	0.702602	0.542711
266888351	O	0.0440717	0.835431	0.490755
266888351	C	0.952091	0.74282	0.583902
266888351	H	0.0350317	0.759522	0.537684
266888351	O	0.955232	0.790006	0.489967
266888351	C	0.95897	0.759619	0.524231
266888351	H	0.960117	0.719075	0.492112
266888351	Fe	0.0320614	0.815191	0.440397
266888351	C	0.999801	0.640892	0.551004
266888351	C	0.992605	0.748633	0.51712
266888351	O	0.96606	0.700825	0.349682
266888351	O	0.0365541	0.805092	0.469683
266888351	C	0.981179	0.702293	0.36086
266888351	O	0.0696559	0.691208	0.482323
266888351	O	0.0145406	0.601605	0.542246
266888351	Fe	0.0231599	0.82328	0.584448
266888351	O	0.012432	0.711735	0.498287
266888351	H	0.0767851	0.815763	0.359458
266888351	H	0.932799	0.79917	0.516607
266888351	O	0.0826137	0.607314	0.411167
266888351	O	0.956271	0.658166	0.435048
266888351	C	0.0408196	0.731915	0.576164
266888351	Fe	0.00329908	0.777522	0.585359
266888351	F	0.946018	0.704516	0.522522
266888351	H	0.97322	0.811442	0.46426
266888351	Fe	0.0261392	0.743547	0.465728
266888351	C	0.976536	0.726747	0.421154
266888351	C	0.0418515	0.669308	0.457073
266888351	O	0.036803	0.750953	0.495026
266888351	C	0.952665	0.807721	0.497296
266888351	C	0.96323	0.778181	0.588667
266888351	C	0.0560444	0.640544	0.435853
266888351	H	0.962693	0.608618	0.352693
266888351	O	0.0413384	0.682537	0.512406
266888351	H	0.0271612	0.679343	0.513224
266888351	O	0.0303989	0.676137	0.471018
266888351	O	0.0604949	0.661147	0.546142
266888351	C	0.958893	0.723277	0.409199
266888351	C	0.018312	0.623684	0.434452
266888351	H	0.954638	0.76322	0.391773
266888351	C	0.0648982	0.749539	0.447305
266888351	O	0.942406	0.810496	0.514761
266888351	O	0.0609837	0.750065	0.365826
266888351	O	0.955484	0.630092	0.400587
266888351	H	0.00818433	0.685197	0.574689
266888351	H	0.0696753	0.648281	0.432537
266888351	C	0.0404143	0.648441	0.448226
266888351	H	0.0101445	0.645392	0.456523
266888351	O	0.0602665	0.807968	0.431318
266888351	H	0.00817204	0.787255	0.427925
266888351	O	0.961486	0.761434	0.378455
266888351	O	0.996809	0.836919	0.548527
266888351	C	0.995244	0.721406	0.413441
266888351	H	0.0812299	0.776852	0.468567
266888351	C	0.0248386	0.835581	0.378319
266888351	O	0.934502	0.739535	0.429726
266888351	C	0.0496787	0.765074	0.535995
266888351	C	0.961405	0.612982	0.474673
266888351	O	0.0137204	0.723457	0.54579
266888351	H	0.0457194	0.734915	0.561913
266888351	O	0.990849	0.714972	0.569222
266888351	O	0.0849137	0.657876	0.38324
266888351	O	0.0276434	0.833312	0.557029
266888351	O	0.96726	0.67267	0.537453
266888351	C	0.971234	0.825007	0.471219
266888351	C	0.0856972	0.756171	0.445146
266888351	Fe	0.0409488	0.701218	0.488097
266888351	O	0.950834	0.599851	0.428922
266888351	C	0.010533	0.670075	0.56984
266888351	O	0.0276884	0.774199	0.569091
266888351	Fe	0.946326	0.662294	0.580751
266888351	C	0.998095	0.660904	0.555718
266888351	O	0.0785214	0.713972	0.570845
266888351	O	0.984948	0.794685	0.539413
266888351	O	0.0468727	0.686728	0.57837
266888351	C	1.57865e-05	0.724109	0.491301
266888351	C	0.953795	0.615911	0.534336
266888351	H	0.0851905	0.767877	0.498223
266888351	O	0.0621981	0.621167	0.389562
266888351	C	0.0179273	0.763554	0.369119
266888351	C	0.960041	0.609742	0.497739
266888351	H	0.00338075	0.718758	0.537753
266888351	C	0.0155033	0.630061	0.560389
266888351	Fe	0.0786413	0.632768	0.367387
266888351	H	0.950314	0.637044	0.510681
266888351	O	0.0258018	0.708502	0.427343
266888351	C	0.0417332	0.786612	0.565823
266888351	O	0.95101	0.625035	0.463372
266888351	O	0.937125	0.68894	0.591388
266888351	H	0.0914186	0.630242	0.54893
266888351	O	0.0449693	0.843053	0.592837
266888351	Fe	0.0920912	0.783018	0.355066
266888351	F	0.000898136	0.752804	0.592199
266888351	H	0.869276	0.741733	0.344802
266888351	H	0.0925386	0.736742	0.421095
266888351	H	0.813278	0.840613	0.482548
266888351	C	0.983466	0.844322	0.594406
266888351	O	0.0363507	0.595284	0.506053
266888351	O	0.768208	0.74676	0.592818
266888351	H	0.0550436	0.6523	0.344727
266888351	O	0.887429	0.663632	0.680892
266888351	O	0.856627	0.670967	0.67234
266888351	C	0.874168	0.668276	0.667768
266888351	Fe	0.843873	0.668932	0.699003
266888351	O	0.830706	0.668902	0.725953
266888351	C	0.82361	0.685195	0.733977
266888351	O	0.830388	0.702134	0.729059
266888351	O	0.895306	0.690963	0.738347
266888351	O	0.865227	0.704797	0.747144
266888351	C	0.883821	0.70267	0.749227
266888351	O	0.859555	0.644204	0.707591
266888351	Fe	0.890866	0.676082	0.709822
266888351	O	0.864064	0.685002	0.710561
266888351	Fe	0.856522	0.711449	0.719003
266888351	O	0.825296	0.692534	0.692521
266888351	O	0.849282	0.739839	0.728065
266888351	O	0.846601	0.717941	0.691218
266888351	C	0.829296	0.711125	0.689068
266888351	O	0.885512	0.72366	0.714417
266888351	O	0.884917	0.651208	0.726969
266888351	O	0.898305	0.701013	0.695021
266888351	C	0.86789	0.643123	0.725089
266888351	C	0.900882	0.716643	0.705362
266888351	H	0.861697	0.746328	0.724151
266888351	H	0.848519	0.741549	0.743284
266888351	F	0.825645	0.651223	0.687336
266888351	O	0.890728	0.750914	0.628044
266888351	C	0.90164	0.758578	0.615641
266888351	O	0.814031	0.747857	0.612634
266888351	C	0.817791	0.749543	0.630425
266888351	Fe	0.860397	0.757373	0.629353
266888351	O	0.864247	0.756037	0.65904
266888351	O	0.860866	0.727278	0.625193
266888351	C	0.871612	0.718336	0.61195
266888351	H	0.874728	0.745865	0.660919
266888351	C	0.818681	0.735919	0.66397
266888351	C	0.792964	0.716968	0.680055
266888351	C	0.808344	0.738719	0.646856
266888351	C	0.780642	0.720335	0.662485
266888351	C	0.789087	0.729605	0.644812
266888351	C	0.813317	0.722845	0.679089
266888351	H	0.788909	0.706436	0.691829
266888351	H	0.834073	0.741629	0.664544
266888351	C	0.89049	0.712986	0.766946
266888351	H	0.88143	0.739937	0.757056
266888351	C	0.867275	0.636095	0.763617
266888351	C	0.858007	0.634479	0.743757
266888351	C	0.890168	0.685334	0.605445
266888351	C	0.874449	0.690894	0.638506
266888351	C	0.896481	0.666447	0.612314
266888351	C	0.880984	0.672997	0.646289
266888351	C	0.89149	0.660414	0.633102
266888351	C	0.879041	0.697878	0.618594
266888351	H	0.86592	0.70025	0.647912
266888351	H	0.895727	0.646178	0.638648
266888351	C	0.805621	0.68321	0.746688
266888351	O	0.867774	0.832609	0.760032
266888351	O	0.867124	0.79481	0.742698
266888351	H	0.860188	0.781934	0.743994
266888351	H	0.880275	0.790982	0.739302
266888351	O	0.830798	0.822192	0.687102
266888351	H	0.822667	0.813581	0.695246
266888351	H	0.831332	0.816093	0.674009
266888351	O	0.831172	0.761871	0.636048
266888351	O	0.861231	0.787218	0.628116
266888351	C	0.847498	0.79774	0.618472
266888351	H	0.871984	0.768329	0.662839
266888351	C	0.810424	0.833135	0.755655
266888351	H	0.816674	0.822247	0.744684
266888351	C	0.850464	0.818651	0.616057
266888351	C	0.885199	0.692843	0.817772
266888351	O	0.866803	0.694503	0.820984
266888351	O	0.831618	0.65747	0.814068
266888351	C	0.820294	0.67021	0.821769
266888351	O	0.880791	0.642374	0.804606
266888351	C	0.864796	0.632094	0.80175
266888351	C	0.883577	0.764287	0.789442
266888351	O	0.775677	0.739243	0.812957
266888351	Fe	0.805115	0.739373	0.812742
266888351	O	0.83667	0.737739	0.813349
266888351	O	0.804814	0.744196	0.78232
266888351	H	0.818977	0.747623	0.780286
266888351	O	0.802738	0.708809	0.805393
266888351	C	0.787553	0.699755	0.798403
266888351	H	0.841701	0.72367	0.811009
266888351	H	0.841643	0.744282	0.802003
266888351	C	0.890037	0.729141	0.805691
266888351	C	0.886194	0.732349	0.769333
266888351	C	0.891969	0.708252	0.802705
266888351	C	0.893389	0.701031	0.783254
266888351	C	0.88636	0.741921	0.788339
266888351	H	0.892778	0.6849	0.780649
266888351	H	0.887385	0.734717	0.820744
266888351	C	0.856938	0.630469	0.780351
266888351	H	0.881962	0.643378	0.765414
266888351	C	0.799631	0.663046	0.822783
266888351	C	0.793952	0.64856	0.808648
266888351	H	0.802247	0.646539	0.794266
266888351	C	0.805529	0.691527	0.76637
266888351	H	0.818352	0.698699	0.772213
266888351	H	0.80389	0.730775	0.777257
266888351	Fe	0.854453	0.830891	0.811686
266888351	O	0.897986	0.802831	0.76778
266888351	C	0.908761	0.816307	0.775415
266888351	Fe	0.896149	0.802844	0.813371
266888351	O	0.872374	0.812534	0.798434
266888351	Fe	0.868503	0.80342	0.771146
266888351	O	0.831188	0.812624	0.803161
266888351	O	0.8368	0.803819	0.772195
266888351	C	0.82599	0.812792	0.784704
266888351	O	0.870095	0.773237	0.777814
266888351	O	0.894242	0.774098	0.802079
266888351	O	0.777642	0.781743	0.806294
266888351	O	0.810181	0.768922	0.819014
266888351	C	0.909334	0.836399	0.768434
266888351	C	0.812136	0.828736	0.775895
266888351	O	0.831151	0.790374	0.61028
266888351	C	0.774547	0.628129	0.671294
266888351	O	0.915005	0.812835	0.792041
266888351	O	0.855018	0.624776	0.816408
266888351	H	0.779794	0.729037	0.63151
266888351	O	0.89582	0.67706	0.822084
266888351	C	0.780872	0.633808	0.81399
266888351	C	0.788417	0.673812	0.73956
266888351	C	0.788536	0.690112	0.77835
266888351	H	0.789394	0.667565	0.724782
266888351	O	0.772027	0.689477	0.651033
266888351	O	0.901997	0.830944	0.827361
266888351	H	0.791725	0.620351	0.645477
266888351	O	0.793459	0.619132	0.759772
266888351	C	0.838203	0.628599	0.741979
266888351	C	0.77968	0.616713	0.80149
266888351	O	0.783161	0.676181	0.614229
266888351	C	0.786021	0.615531	0.659995
266888351	C	0.837327	0.62316	0.777908
266888351	O	0.770504	0.699071	0.807581
266888351	C	0.771381	0.634655	0.83253
266888351	H	0.822708	0.824071	0.628765
266888351	C	0.770996	0.6837	0.769069
266888351	C	0.836164	0.831544	0.624239
266888351	Fe	0.887322	0.648606	0.833825
266888351	H	0.831755	0.627083	0.726963
266888351	H	0.784538	0.663858	0.606693
266888351	C	0.921892	0.72256	0.710936
266888351	C	0.828946	0.622213	0.758803
266888351	F	0.913048	0.638171	0.828763
266888351	C	0.772533	0.602338	0.697787
266888351	H	0.780144	0.6862	0.604079
266888351	C	0.770928	0.675369	0.750052
266888351	H	0.782683	0.799957	0.681345
266888351	H	0.829324	0.619311	0.791051
266888351	C	0.810838	0.610413	0.75915
266888351	O	0.792579	0.836814	0.680076
266888351	C	0.922027	0.751163	0.611893
266888351	C	0.774523	0.839578	0.678364
266888351	O	0.826805	0.682659	0.834912
266888351	O	0.771226	0.755301	0.772226
266888351	Fe	0.841042	0.641521	0.837409
266888351	O	0.920919	0.667464	0.707535
266888351	O	0.817753	0.621702	0.836992
266888351	C	0.867714	0.826579	0.607421
266888351	O	0.877841	0.792117	0.836202
266888351	O	0.854416	0.759306	0.601336
266888351	H	0.91362	0.720827	0.609509
266888351	C	0.91687	0.840088	0.750094
266888351	O	0.894146	0.77078	0.60365
266888351	H	0.816699	0.773187	0.806086
266888351	O	0.795043	0.605311	0.797791
266888351	O	0.768547	0.607037	0.605151
266888351	O	0.862412	0.658909	0.839117
266888351	O	0.919852	0.792851	0.828802
266888351	H	0.918195	0.713575	0.742353
266888351	H	0.780379	0.744422	0.600688
266888351	C	0.765649	0.705101	0.65993
266888351	C	0.769061	0.622072	0.691289
266888351	H	0.779512	0.616318	0.602411
266888351	H	0.825269	0.609671	0.839368
266888351	H	0.779592	0.790783	0.795013
266888351	H	0.911793	0.825329	0.687727
266888351	Fe	0.763581	0.608767	0.762842
266888351	H	0.934086	0.723257	0.681905
266888351	C	0.0926881	0.821936	0.690908
266888351	O	0.923729	0.819445	0.682644
266888351	C	0.765941	0.646957	0.662978
266888351	O	0.765906	0.649289	0.644397
266888351	H	0.924035	0.827498	0.742692
266888351	C	0.0932662	0.633873	0.75207
266888351	O	0.775335	0.764167	0.689551
266888351	Fe	0.0852396	0.844524	0.763418
266888351	H	0.0824236	0.774468	0.697181
266888351	C	0.790286	0.662777	0.841519
266888351	O	0.893993	0.602306	0.783758
266888351	O	0.0567665	0.634462	0.840593
266888351	C	0.924598	0.731153	0.605284
266888351	H	0.921416	0.817697	0.667733
266888351	H	0.923098	0.654822	0.715532
266888351	C	0.00774103	0.841129	0.822931
266888351	H	0.958196	0.645545	0.609862
266888351	O	0.763438	0.613745	0.792943
266888351	H	0.0901714	0.714619	0.733448
266888351	H	0.879113	0.817173	0.601322
266888351	H	0.0834819	0.687191	0.640485
266888351	O	0.0911536	0.608352	0.709266
266888351	O	0.878442	0.727961	0.596195
266888351	C	0.0887448	0.836931	0.677009
266888351	O	0.762402	0.607419	0.731952
266888351	H	0.0433673	0.628047	0.839884
266888351	H	0.925982	0.666121	0.694059
266888351	C	0.768343	0.803443	0.674222
266888351	H	0.819581	0.769932	0.830374
266888351	C	0.964883	0.789905	0.804593
266888351	C	0.903102	0.597787	0.766086
266888351	O	0.961971	0.808201	0.840671
266888351	C	0.762791	0.823241	0.670037
266888351	H	0.914067	0.786372	0.840048
266888351	C	0.0276301	0.838663	0.819138
266888351	C	0.960406	0.789689	0.841332
266888351	O	0.0413949	0.748417	0.67893
266888351	H	0.854641	0.721695	0.843242
266888351	C	0.788771	0.59529	0.665796
266888351	H	0.915639	0.634949	0.777443
266888351	O	0.0780886	0.796614	0.670522
266888351	C	0.919894	0.608173	0.758542
266888351	H	0.761431	0.622701	0.837067
266888351	O	0.0145444	0.597825	0.705974
266888351	O	0.924264	0.648967	0.597382
266888351	O	0.0921154	0.785523	0.699947
266888351	O	0.85757	0.818509	0.841076
266888351	H	0.763419	0.745158	0.764694
266888351	H	0.765717	0.608381	0.619961
266888351	H	0.092358	0.63946	0.738161
266888351	C	0.925308	0.627255	0.766408
266888351	H	0.775868	0.749896	0.693038
266888351	H	0.0834773	0.832995	0.662351
266888351	O	0.956366	0.595947	0.704433
266888351	C	0.992063	0.631792	0.815673
266888351	H	0.925644	0.804328	0.834567
266888351	O	0.966015	0.661026	0.762806
266888351	H	0.976002	0.751671	0.773405
266888351	C	0.0590806	0.646728	0.759632
266888351	O	0.0413041	0.721273	0.647727
266888351	H	0.0761789	0.65838	0.67847
266888351	H	0.0333448	0.771134	0.645102
266888351	C	0.998861	0.651359	0.80623
266888351	C	0.0341166	0.620079	0.686206
266888351	O	0.00123051	0.665121	0.818713
266888351	C	0.764725	0.595145	0.718225
266888351	O	0.0548719	0.662365	0.599035
266888351	O	0.975548	0.701656	0.750494
266888351	C	0.0874155	0.800368	0.686416
266888351	C	0.994525	0.630087	0.836456
266888351	H	0.0659403	0.8122	0.760971
266888351	O	0.955446	0.678666	0.823146
266888351	C	0.024602	0.780417	0.654037
266888351	C	0.973659	0.760382	0.78655
266888351	C	0.0678239	0.703932	0.776479
266888351	H	0.979937	0.681034	0.69307
266888351	O	0.00884683	0.718239	0.643658
266888351	F	0.927441	0.696665	0.801494
266888351	O	0.0236242	0.678859	0.6609
266888351	C	0.967859	0.759657	0.822739
266888351	C	0.0244287	0.757516	0.682737
266888351	C	0.0878683	0.626894	0.700425
266888351	H	0.0869402	0.713782	0.672998
266888351	F	0.00598786	0.738292	0.733019
266888351	H	0.0314301	0.724542	0.749373
266888351	O	0.0261018	0.693327	0.797424
266888351	H	0.986265	0.68639	0.636287
266888351	O	0.0199857	0.815001	0.613598
266888351	C	0.0287599	0.698734	0.780102
266888351	C	0.0644354	0.648597	0.681224
266888351	Fe	0.0814407	0.676049	0.605199
266888351	C	0.963183	0.779409	0.822619
266888351	C	0.96248	0.688249	0.83798
266888351	O	0.0937473	0.648914	0.613453
266888351	H	0.944024	0.811465	0.71226
266888351	O	0.0178725	0.781937	0.611791
266888351	H	0.016532	0.640247	0.667278
266888351	C	0.00771437	0.791345	0.683925
266888351	C	0.955122	0.627918	0.744594
266888351	O	0.979106	0.720282	0.675054
266888351	C	0.0677031	0.631244	0.691984
266888351	Fe	0.952719	0.690968	0.795436
266888351	H	0.974802	0.791964	0.739097
266888351	O	0.0598051	0.714366	0.703889
266888351	C	0.0311165	0.63845	0.67504
266888351	C	0.0526345	0.617119	0.69534
266888351	H	0.0306189	0.691128	0.714337
266888351	O	0.988605	0.714252	0.705542
266888351	O	0.978329	0.69789	0.835831
266888351	H	0.0613037	0.739691	0.62139
266888351	O	0.0450394	0.647715	0.772114
266888351	C	0.928023	0.719813	0.731523
266888351	C	0.973819	0.750548	0.805059
266888351	H	0.00313805	0.789058	0.698914
266888351	O	0.981394	0.685421	0.649727
266888351	H	0.0713595	0.699172	0.791981
266888351	O	0.980623	0.688522	0.791732
266888351	C	0.0456195	0.65334	0.674041
266888351	H	0.996526	0.822567	0.645792
266888351	C	0.0765699	0.634489	0.764426
266888351	H	0.00505177	0.713289	0.604106
266888351	C	0.937444	0.725351	0.697053
266888351	C	0.976313	0.729848	0.806033
266888351	C	0.0199791	0.777264	0.673915
266888351	C	0.943129	0.636746	0.760156
266888351	C	0.931578	0.600759	0.74205
266888351	C	0.00244118	0.810195	0.653974
266888351	C	0.0310445	0.727523	0.616296
266888351	H	0.974553	0.735134	0.730328
266888351	C	0.983513	0.821594	0.68375
266888351	C	0.0460788	0.717653	0.752911
266888351	C	0.998825	0.807524	0.673945
266888351	O	0.0732902	0.678252	0.634752
266888351	C	0.959926	0.732078	0.724924
266888351	H	0.977215	0.65261	0.597002
266888351	O	0.960548	0.719646	0.80453
266888351	O	0.95157	0.824006	0.713176
266888351	O	0.0573654	0.65522	0.741521
266888351	Fe	0.0495399	0.718169	0.676166
266888351	O	0.000567214	0.66568	0.740902
266888351	O	0.0422736	0.737852	0.715422
266888351	Fe	0.00222499	0.699614	0.667834
266888351	C	0.944492	0.597606	0.810816
266888351	C	0.962716	0.613547	0.839909
266888351	O	0.0819647	0.604828	0.819317
266888351	C	0.947761	0.720803	0.736652
266888351	H	0.963293	0.806495	0.80476
266888351	O	0.0778471	0.724099	0.667544
266888351	H	0.968516	0.635396	0.739849
266888351	C	0.0839435	0.711583	0.764912
266888351	C	0.962921	0.598471	0.722058
266888351	O	0.99453	0.680553	0.69139
266888351	C	0.961186	0.610503	0.819407
266888351	H	0.934672	0.779201	0.615087
266888351	O	0.964695	0.657632	0.604401
266888351	C	0.0496089	0.735844	0.610522
266888351	O	0.977373	0.782946	0.750736
266888351	C	0.936164	0.764746	0.607478
266888351	O	0.967601	0.825326	0.673625
266888351	H	0.0603831	0.685624	0.635021
266888351	C	0.950234	0.608827	0.73683
266888351	H	0.00517124	0.652421	0.745485
266888351	C	0.957046	0.728771	0.704035
266888351	O	0.993739	0.722912	0.80873
266888351	H	0.969898	0.752067	0.837904
266888351	Fe	0.0149935	0.725262	0.7094
266888351	C	0.0787428	0.625321	0.782936
266888351	H	0.972704	0.620982	0.79277
266888351	O	0.000313411	0.654332	0.786784
266888351	Fe	0.989532	0.678685	0.767622
266888351	O	0.073606	0.81894	0.749765
266888351	C	0.0179308	0.721038	0.600845
266888351	O	0.0105455	0.749983	0.693195
266888351	C	0.0193566	0.604657	0.688522
266888351	C	0.0160037	0.796811	0.644211
266888351	H	0.0835663	0.736154	0.672017
266888351	O	0.977801	0.77988	0.600009
266888351	C	0.0793277	0.713319	0.744428
266888351	C	0.0481836	0.70765	0.770251
266888351	C	0.0264064	0.722071	0.637175
266888351	O	0.015174	0.695494	0.767604
266888351	O	0.986886	0.828485	0.701594
266888351	O	0.943428	0.66272	0.785769
266888351	C	0.0612162	0.718969	0.739113
266888351	C	0.950151	0.655272	0.769772
266888351	O	0.0221335	0.713254	0.68487
266888351	O	0.0215354	0.699248	0.723301
266888351	H	0.969049	0.692708	0.650478
266888351	C	0.976256	0.722014	0.693446
266888351	C	0.975966	0.620526	0.807925
266888351	C	0.0182766	0.79797	0.621899
266888351	H	0.0375062	0.82986	0.829454
266888351	O	0.946589	0.703082	0.767582
266888351	H	0.954365	0.840565	0.623675
266888351	C	0.0412315	0.674944	0.66762
266888351	H	0.0551707	0.6047	0.705974
266888351	C	0.0558679	0.725295	0.718721
266888351	H	0.0670422	0.627741	0.793527
266888351	O	0.0193497	0.701343	0.838436
266888351	Fe	0.945008	0.840028	0.687091
266888351	H	0.0451558	0.663804	0.741432
266888351	C	0.969527	0.78066	0.786887
266888351	O	0.0534153	0.68875	0.673291
266888351	H	0.0633013	0.823215	0.741687
266888351	C	0.969705	0.791875	0.76751
266888351	Fe	0.99966	0.694723	0.814394
266888351	O	0.0701405	0.703625	0.600785
266888351	C	0.957382	0.708272	0.752795
266888351	H	0.997405	0.667481	0.685229
266888351	H	0.988329	0.662622	0.733361
266888351	O	0.962503	0.809126	0.766993
266888351	C	0.90651	0.653726	0.596633
266888351	C	0.000270481	0.83487	0.842586
266888351	O	0.014606	0.595724	0.672158
266888351	H	0.0325007	0.704475	0.832598
266888351	H	0.808042	0.842432	0.805223
266888351	H	0.762421	0.643399	0.772628
266888351	H	0.0929254	0.813228	0.834524
266888351	Fe	0.762384	0.719476	0.829722
266888351	H	0.00674812	0.638497	0.842997
266888351	H	0.923886	0.693508	0.84141
266888351	O	0.807691	0.735318	0.843464
266888351	O	0.851737	0.629368	0.860344
266888351	C	0.863218	0.6152	0.857247
266888351	O	0.89605	0.656697	0.861359
266888351	O	0.885799	0.688281	0.858649
266888351	C	0.898198	0.675715	0.864651
266888351	O	0.85031	0.67474	0.873895
266888351	O	0.825184	0.657945	0.860203
266888351	C	0.832335	0.66836	0.874771
266888351	O	0.813293	0.64706	0.912879
266888351	O	0.801573	0.61385	0.889633
266888351	H	0.824423	0.638263	0.908604
266888351	H	0.816112	0.648581	0.926968
266888351	O	0.833923	0.730295	0.926037
266888351	O	0.863601	0.715133	0.923211
266888351	C	0.845664	0.717805	0.917804
266888351	O	0.877677	0.756167	0.921877
266888351	F	0.903673	0.725601	0.926937
266888351	C	0.830153	0.688007	0.903175
266888351	C	0.805265	0.69162	0.877557
266888351	C	0.835775	0.707588	0.900538
266888351	C	0.812511	0.711252	0.871514
266888351	C	0.827549	0.719224	0.884922
266888351	C	0.818567	0.679412	0.887734
266888351	H	0.832947	0.73466	0.882037
266888351	H	0.834889	0.679943	0.916404
266888351	C	0.918183	0.682548	0.871255
266888351	O	0.84863	0.771877	0.9274
266888351	C	0.865791	0.770048	0.91773
266888351	H	0.801819	0.749835	0.92664
266888351	O	0.811488	0.798155	0.903034
266888351	C	0.864997	0.78976	0.884829
266888351	C	0.895795	0.805375	0.872354
266888351	C	0.875076	0.784428	0.902924
266888351	C	0.907383	0.797756	0.888808
266888351	C	0.896347	0.787989	0.904363
266888351	C	0.875435	0.8012	0.869408
266888351	H	0.903374	0.812298	0.859857
266888351	H	0.849665	0.785766	0.882479
266888351	C	0.777017	0.679657	0.0262739
266888351	O	0.854904	0.626144	0.036502
266888351	H	0.834748	0.620495	0.988732
266888351	O	0.848152	0.620882	0.994839
266888351	O	0.911693	0.616006	0.000796921
266888351	O	0.88615	0.619253	0.979102
266888351	C	0.90053	0.626572	0.990031
266888351	O	0.905207	0.616339	0.0402447
266888351	O	0.819619	0.729017	0.0720493
266888351	O	0.8473	0.712945	0.0633547
266888351	C	0.829497	0.717768	0.0601149
266888351	Fe	0.867321	0.728862	0.0793423
266888351	O	0.883757	0.732589	0.053785
266888351	H	0.895711	0.725021	0.055445
266888351	H	0.88586	0.747156	0.052154
266888351	Fe	0.881322	0.733954	0.941755
266888351	O	0.89831	0.755526	0.957967
266888351	C	0.898857	0.754714	0.97686
266888351	O	0.891772	0.739893	0.985091
266888351	Fe	0.833886	0.749962	0.947889
266888351	O	0.858476	0.740202	0.958361
266888351	Fe	0.862607	0.740967	0.986611
266888351	O	0.886685	0.709248	0.960667
266888351	O	0.867469	0.741512	0.0158126
266888351	O	0.865378	0.709523	0.987414
266888351	C	0.879897	0.700617	0.977155
266888351	O	0.833247	0.742631	0.993604
266888351	O	0.817841	0.728428	0.968778
266888351	C	0.820903	0.729668	0.988243
266888351	H	0.877895	0.731839	0.0181892
266888351	H	0.873973	0.75436	0.0181148
266888351	C	0.910779	0.615991	0.0757393
266888351	C	0.890369	0.663193	0.982264
266888351	C	0.892108	0.684679	0.986626
266888351	C	0.907221	0.69103	0.998891
266888351	C	0.90386	0.649518	0.990795
266888351	H	0.907846	0.705965	0.00322302
266888351	H	0.879319	0.658035	0.97215
266888351	H	0.916465	0.609669	0.957697
266888351	C	0.824948	0.720265	0.0237529
266888351	C	0.804893	0.696204	0.041683
266888351	C	0.814422	0.716987	0.00559133
266888351	C	0.794471	0.692127	0.0240246
266888351	C	0.798978	0.702479	0.00650486
266888351	C	0.820123	0.710975	0.0411449
266888351	H	0.799577	0.691408	0.0553046
266888351	H	0.837163	0.730194	0.0253823
266888351	C	0.908689	0.768015	0.990124
266888351	H	0.840174	0.62451	0.0378179
266888351	H	0.854264	0.633065	0.989434
266888351	O	0.775296	0.788007	0.0154747
266888351	C	0.77427	0.798988	0.0315031
266888351	O	0.853836	0.754801	0.0711527
266888351	O	0.847426	0.834022	0.0348824
266888351	C	0.840691	0.829932	0.0523968
266888351	O	0.849352	0.835297	0.0679165
266888351	C	0.903911	0.813547	0.0258788
266888351	O	0.830775	0.77116	0.968314
266888351	O	0.859716	0.771979	0.985324
266888351	C	0.844336	0.780211	0.977941
266888351	O	0.805388	0.759538	0.937021
266888351	H	0.796638	0.75575	0.948528
266888351	C	0.839086	0.801252	0.980128
266888351	C	0.901112	0.785841	2.06324e-05
266888351	H	0.885851	0.789997	0.99783
266888351	C	0.80966	0.808703	0.041765
266888351	C	0.790237	0.801303	0.0469023
266888351	C	0.784089	0.80359	0.0671771
266888351	C	0.822577	0.81825	0.0566344
266888351	H	0.813024	0.811596	0.0257154
266888351	H	0.8413	0.613709	0.89071
266888351	C	0.897962	0.613056	0.0570789
266888351	C	0.918705	0.657185	0.00354649
266888351	C	0.919287	0.677777	0.00913729
266888351	C	0.804956	0.785671	0.890716
266888351	H	0.863808	0.802344	0.0761684
266888351	C	0.847422	0.767533	0.0835796
266888351	C	0.788262	0.790068	0.877554
266888351	C	0.846913	0.815701	0.967365
266888351	C	0.819972	0.804497	0.987673
266888351	O	0.885555	0.818	0.0243452
266888351	H	0.814122	0.792034	0.99675
266888351	C	0.912428	0.796062	0.0150807
266888351	H	0.862119	0.812557	0.960729
266888351	H	0.794347	0.820914	0.878784
266888351	C	0.784303	0.809162	0.873248
266888351	H	0.7903	0.698944	0.993837
266888351	O	0.903587	0.821515	0.0775335
266888351	O	0.91554	0.824116	0.0364609
266888351	Fe	0.788224	0.631657	0.909441
266888351	O	0.812572	0.766187	0.891221
266888351	O	0.781421	0.648956	0.88275
266888351	H	0.905201	0.782571	0.915846
266888351	H	0.789254	0.689041	0.877814
266888351	H	0.786029	0.655543	0.938951
266888351	O	0.797178	0.61361	0.933717
266888351	C	0.816397	0.817162	0.0763945
266888351	O	0.774076	0.805245	0.973558
266888351	C	0.797053	0.811778	0.081761
266888351	C	0.785381	0.816594	0.982518
266888351	C	0.807031	0.817723	0.97803
266888351	C	0.835552	0.832845	0.962016
266888351	C	0.81448	0.833287	0.966458
266888351	O	0.779832	0.825047	0.998696
266888351	O	0.775093	0.651476	0.930516
266888351	C	0.801465	0.71993	0.853095
266888351	O	0.769703	0.635933	0.00487077
266888351	C	0.769687	0.644723	0.867575
266888351	F	0.772207	0.765171	0.978056
266888351	H	0.919039	0.664135	0.896993
266888351	O	0.850968	0.714749	0.854984
266888351	H	0.768054	0.802817	0.0710917
266888351	O	0.771321	0.672739	0.042919
266888351	O	0.882656	0.703815	0.0860043
266888351	H	0.820822	0.76557	0.90288
266888351	C	0.768007	0.617229	0.00920149
266888351	C	0.769174	0.814864	0.860749
266888351	H	0.917433	0.680324	0.0778823
266888351	C	0.77613	0.775296	0.869482
266888351	C	0.782451	0.604804	0.998113
266888351	H	0.781036	0.759751	0.870606
266888351	C	0.782007	0.608169	0.977767
266888351	C	0.789092	0.60074	0.944872
266888351	C	0.868537	0.803357	0.847849
266888351	O	0.881882	0.603122	0.0593336
266888351	H	0.894533	0.753743	0.0860044
266888351	H	0.825243	0.823274	0.0878687
266888351	H	0.8096	0.624236	0.848988
266888351	H	0.84495	0.609335	0.958407
266888351	H	0.794317	0.671778	0.852788
266888351	C	0.868465	0.795959	0.0905263
266888351	H	0.862162	0.716553	0.864222
266888351	C	0.0934197	0.693542	0.0799295
266888351	O	0.785744	0.711256	0.846614
266888351	H	0.943426	0.595889	0.0160195
266888351	C	0.795149	0.59825	0.965646
266888351	H	0.79269	0.762024	0.0890055
266888351	H	0.922596	0.616602	0.911759
266888351	C	0.765024	0.836834	0.85897
266888351	H	0.768514	0.614739	0.971954
266888351	C	0.839437	0.599698	0.881861
266888351	H	0.927676	0.610831	0.890007
266888351	O	0.855991	0.599385	0.958466
266888351	Fe	0.867133	0.597587	0.986747
266888351	H	0.8809	0.600509	0.92316
266888351	H	0.767575	0.642642	0.93914
266888351	C	0.766499	0.619733	0.091542
266888351	O	0.83014	0.765855	0.0911679
266888351	H	0.0748733	0.783164	0.872769
266888351	Fe	0.857477	0.685122	0.846467
266888351	Fe	0.912151	0.843815	0.059623
266888351	O	0.763019	0.618207	0.906769
266888351	H	0.0192655	0.688208	0.845902
266888351	O	0.879012	0.618939	0.846878
266888351	C	0.926868	0.760889	0.996506
266888351	O	0.930374	0.60782	0.904051
266888351	O	0.765137	0.678438	0.0109248
266888351	C	0.77601	0.648713	0.847417
266888351	H	0.0107861	0.602868	0.980082
266888351	F	0.842752	0.59495	0.060051
266888351	C	0.0943661	0.777404	0.853216
266888351	C	0.804503	0.59566	0.892754
266888351	O	0.984718	0.842781	0.849331
266888351	C	0.890196	0.823029	0.0913077
266888351	O	0.980938	0.615869	0.0925299
266888351	C	0.918471	0.678916	0.0942545
266888351	C	0.942555	0.59547	0.967396
266888351	H	0.0628137	0.638394	0.0326955
266888351	Fe	0.860025	0.595916	0.0384569
266888351	H	0.92895	0.646853	0.0109239
266888351	C	0.923819	0.595669	0.960038
266888351	O	0.094067	0.759253	0.858295
266888351	C	0.0881912	0.636771	0.965951
266888351	C	0.0075474	0.795357	0.915513
266888351	H	0.0452482	0.778147	0.907738
266888351	C	0.932489	0.684321	0.0252646
266888351	H	0.0567059	0.644788	0.851195
266888351	O	0.979747	0.731671	0.975326
266888351	C	0.0561148	0.776525	0.938486
266888351	O	0.974178	0.618929	0.0612748
266888351	C	0.927207	0.675616	0.888552
266888351	O	0.876824	0.597393	0.0149468
266888351	O	0.891859	0.601684	0.933519
266888351	H	0.0367974	0.607088	0.87949
266888351	H	0.94242	0.799722	0.0261998
266888351	O	0.0817845	0.790425	0.862222
266888351	O	0.0810264	0.597536	0.893441
266888351	C	0.0764573	0.650852	0.907658
266888351	C	0.772408	0.599801	0.0915959
266888351	O	0.936109	0.704464	0.0287227
266888351	O	0.96782	0.616934	0.88173
266888351	C	0.986036	0.691047	0.00344016
266888351	O	0.97397	0.602474	0.955866
266888351	C	0.0247682	0.800849	0.946687
266888351	C	0.0435568	0.750092	0.88101
266888351	H	0.983045	0.702269	0.0156073
266888351	H	0.00623295	0.782983	0.0595687
266888351	H	0.950334	0.611435	0.849537
266888351	Fe	0.995634	0.790786	0.999931
266888351	O	0.980493	0.789769	0.951068
266888351	C	0.0728318	0.761675	0.93765
266888351	O	0.0387704	0.778725	0.990997
266888351	O	0.0268744	0.629282	0.907452
266888351	H	0.994531	0.609746	0.02597
266888351	Fe	0.0790677	0.613893	0.847852
266888351	O	0.0895296	0.83697	0.0223992
266888351	O	0.942278	0.838409	0.0669524
266888351	C	0.0837055	0.685309	0.921703
266888351	C	0.0131731	0.746983	0.900708
266888351	C	0.0274729	0.77732	0.0818632
266888351	O	0.0687338	0.729818	0.0914394
266888351	Fe	0.00786574	0.816995	0.880023
266888351	H	0.944429	0.823842	0.064966
266888351	C	0.931745	0.789884	0.0181096
266888351	H	0.0562779	0.839478	0.944755
266888351	C	0.0391277	0.797088	0.960711
266888351	C	0.0728042	0.74521	0.0814292
266888351	O	0.0697836	0.742426	0.941359
266888351	H	0.988706	0.641466	0.992865
266888351	H	0.0563753	0.748802	0.0424643
266888351	C	0.999488	0.652765	0.955363
266888351	H	0.933287	0.747105	0.990277
266888351	Fe	0.0828462	0.842541	0.968434
266888351	H	0.0793329	0.656713	0.893014
266888351	C	0.959321	0.661613	0.902846
266888351	C	0.981125	0.625396	0.871632
266888351	O	0.00834501	0.812677	0.909121
266888351	Fe	0.980455	0.760011	0.963023
266888351	H	0.935298	0.620412	0.0563461
266888351	O	0.981768	0.675241	0.0426845
266888351	O	0.0270229	0.615211	0.935688
266888351	C	0.986391	0.664016	0.0279115
266888351	O	0.944324	0.792274	0.899151
266888351	O	0.0536544	0.738609	0.987695
266888351	H	0.0689797	0.786648	0.965301
266888351	C	0.0545299	0.740868	0.89593
266888351	O	0.00683294	0.608069	0.034854
266888351	H	0.97059	0.815225	0.919782
266888351	C	0.0323772	0.793463	0.981096
266888351	H	0.0839433	0.609949	0.934
266888351	O	0.997675	0.651938	0.0758823
266888351	H	0.0135158	0.810802	0.950413
266888351	H	0.954441	0.737349	0.947996
266888351	C	0.0211687	0.764839	0.028758
266888351	H	0.0669178	0.666759	0.953022
266888351	C	0.931188	0.800452	0.887583
266888351	C	0.031078	0.614309	0.917784
266888351	H	0.05055	0.7547	0.867683
266888351	O	0.957184	0.75214	0.944981
266888351	C	0.0756039	0.66427	0.923427
266888351	C	0.930091	0.688793	0.855499
266888351	C	0.0274517	0.616199	0.0890517
266888351	C	0.956074	0.607369	0.95505
266888351	H	0.0434509	0.822653	0.869318
266888351	H	0.949897	0.750188	0.888766
266888351	C	0.0563741	0.786706	0.955625
266888351	H	0.946681	0.705998	0.0391676
266888351	H	0.0620987	0.748518	0.994789
266888351	C	0.0422383	0.781305	0.923267
266888351	Fe	0.0253231	0.751926	0.985709
266888351	C	0.960306	0.684118	0.874734
266888351	O	0.0896908	0.753335	0.896922
266888351	C	0.993057	0.719878	0.981668
266888351	C	0.938734	0.772686	0.00875839
266888351	Fe	0.959454	0.616654	0.911846
266888351	O	0.0288944	0.749276	0.953767
266888351	O	0.0239228	0.676479	0.0581383
266888351	F	0.0145372	0.666967	0.898082
266888351	O	0.0370262	0.828638	0.880668
266888351	H	0.067459	0.705047	0.966377
266888351	O	0.0902615	0.750779	0.0777292
266888351	C	0.0290921	0.764151	0.0489147
266888351	H	0.0578124	0.823772	0.991803
266888351	O	0.950107	0.644893	0.906607
266888351	O	0.08295	0.720841	0.890228
266888351	O	0.936182	0.812763	0.874114
266888351	C	0.0480715	0.755235	0.0538944
266888351	O	0.011575	0.780066	0.0238775
266888351	C	0.978524	0.806673	0.960384
266888351	C	0.967917	0.616731	0.079258
266888351	C	0.975786	0.827729	0.928429
266888351	O	0.0197596	0.804188	0.989044
266888351	O	0.997401	0.634436	0.959357
266888351	O	0.0769727	0.699676	0.931344
266888351	O	0.977827	0.664347	0.907125
266888351	H	0.0524061	0.726291	0.996238
266888351	O	0.0785679	0.624611	0.875642
266888351	H	0.996691	0.710711	0.0468107
266888351	H	0.0560941	0.68856	0.0706512
266888351	O	0.992155	0.709878	0.0610585
266888351	C	0.0560146	0.756965	0.0734546
266888351	Fe	0.0924207	0.722075	0.945761
266888351	O	0.980546	0.808835	0.877506
266888351	C	0.0567741	0.662504	0.0534289
266888351	H	0.977284	0.711086	0.0590725
266888351	C	0.979654	0.622618	0.848718
266888351	O	0.956926	0.780302	0.857532
266888351	C	0.0790693	0.624783	0.931722
266888351	C	0.0439862	0.735009	0.913253
266888351	O	0.998061	0.749161	0.940261
266888351	Fe	0.000899593	0.646532	0.909253
266888351	O	0.0896963	0.769136	0.93374
266888351	O	0.99383	0.768331	0.870278
266888351	F	0.990902	0.812463	0.0155335
266888351	Fe	0.994518	0.680673	0.069648
266888351	C	0.0692706	0.64944	0.0432567
266888351	O	0.0647095	0.828536	0.949622
266888351	C	0.065138	0.677293	0.0646699
266888351	O	0.011093	0.725225	0.98365
266888351	C	0.988814	0.69865	0.984355
266888351	O	0.995251	0.635969	0.879896
266888351	C	0.0230722	0.754635	0.883518
266888351	O	0.0283955	0.643231	0.0517236
266888351	C	0.993766	0.686486	0.968463
266888351	O	0.0809926	0.709572	0.971155
266888351	O	0.963739	0.753342	0.891819
266888351	O	0.992394	0.647234	0.0315356
266888351	O	0.0090125	0.820755	0.851107
266888351	O	0.000733834	0.767026	0.982938
266888351	C	0.0170545	0.746602	0.93899
266888351	H	0.0484744	0.724049	0.923478
266888351	C	0.993568	0.66572	0.971361
266888351	H	0.976252	0.681659	0.874338
266888351	O	0.978169	0.806465	0.979571
266888351	C	0.0245981	0.742115	0.917751
266888351	C	0.0855562	0.677662	0.0680188
266888351	Fe	0.962273	0.826049	0.863905
266888351	H	0.0784436	0.813507	0.989171
266888351	H	0.99812	0.750889	0.903834
266888351	C	0.930915	0.618829	0.0718786
266888351	C	0.0701795	0.657248	0.941961
266888351	O	0.95992	0.770585	0.982267
266888351	O	0.0729355	0.825769	0.992184
266888351	H	0.963809	0.753385	0.906482
266888351	H	0.999216	0.69436	0.955025
266888351	C	0.0123664	0.771538	0.872896
266888351	O	0.972212	0.777471	0.0117742
266888351	O	0.0237336	0.750072	0.016371
266888351	O	0.00472499	0.658721	0.938303
266888351	C	0.0244215	0.790857	0.928884
266888351	C	0.946268	0.616487	0.085842
266888351	H	0.0876585	0.695989	0.971586
266888351	H	0.945525	0.75831	0.952439
266888351	C	0.951218	0.68864	0.856935
266888351	C	0.0773205	0.638328	0.947201
266888351	C	0.976271	0.826449	0.949196
266888351	O	0.0197746	0.788795	0.875434
266888351	C	0.034757	0.661075	0.0533154
266888351	C	0.019325	0.774158	0.0633252
266888351	C	0.0898245	0.651005	0.0454099
266888351	Fe	0.999336	0.609761	0.944175
266888351	O	0.986639	0.624259	0.920977
266888351	O	0.992878	0.783729	0.911124
266888351	H	0.0717109	0.823136	0.937644
266888351	Fe	0.0018575	0.630775	0.0557584
266888351	C	0.0765619	0.738699	0.893812
266888351	O	0.949541	0.617896	0.940518
266888351	O	0.943817	0.672035	0.0340188
266888351	O	0.0143716	0.611849	0.0765744
266888351	C	0.988646	0.65796	0.990486
266888351	C	0.948609	0.676738	0.890782
266888351	Fe	0.971701	0.782452	0.885304
266888351	C	0.0770029	0.630135	0.910673
266888351	C	0.0788997	0.616252	0.892628
266888351	C	0.0471151	0.604078	0.0873711
266888351	C	0.958393	0.772306	0.000917728
266888351	C	0.0458382	0.768958	0.0873008
266888351	C	0.986093	0.670793	0.00681149
266888351	O	0.965209	0.681832	0.0816672
266888351	F	0.866104	0.843795	0.99978
266888351	O	0.0930595	0.620333	0.97426
266888351	O	0.963458	0.844341	0.88781
266888351	C	0.854452	0.595434	0.867422
266888351	H	0.0359177	0.843047	0.87758
266888351	C	0.798772	0.595548	0.0067268
266888351	H	0.0041026	0.596149	0.0425683
266888351	H	0.803165	0.843017	0.960284
266888351	F	0.94487	0.842832	0.850966
266888351	H	0.79936	0.596665	0.0225426
266888351	C	0.9569	0.669938	0.0944588
266888351	F	0.779241	0.903597	0.237285
266888351	O	0.896013	0.8861	0.163202
266888351	O	0.877939	0.873925	0.187945
266888351	C	0.879138	0.883219	0.171692
266888351	O	0.889241	0.872405	0.229897
266888351	O	0.889828	0.904257	0.230139
266888351	C	0.879913	0.888213	0.232148
266888351	O	0.799576	0.875243	0.130426
266888351	O	0.79895	0.872442	0.1629
266888351	C	0.806717	0.879389	0.147234
266888351	Fe	0.775181	0.860727	0.118663
266888351	F	0.781633	0.857379	0.194035
266888351	C	0.849388	0.905219	0.247083
266888351	C	0.847284	0.870605	0.236555
266888351	C	0.829085	0.9043	0.254303
266888351	C	0.827919	0.868517	0.243527
266888351	C	0.820272	0.884974	0.253135
266888351	C	0.858448	0.888339	0.238411
266888351	H	0.85431	0.856368	0.231388
266888351	H	0.857256	0.918432	0.249285
266888351	C	0.82979	0.907862	0.136828
266888351	C	0.843088	0.881907	0.157859
266888351	C	0.8483	0.918098	0.137669
266888351	C	0.861124	0.892077	0.160516
266888351	C	0.863714	0.909748	0.149437
266888351	C	0.826114	0.889631	0.147001
266888351	H	0.84153	0.868287	0.167622
266888351	H	0.878218	0.917166	0.150593
266888351	H	0.817484	0.914183	0.129213
266888351	O	0.86619	0.98685	0.143035
266888351	O	0.893849	0.973242	0.128687
266888351	C	0.885152	0.983229	0.143365
266888351	Fe	0.842488	0.982873	0.123177
266888351	O	0.825124	0.987872	0.147854
266888351	O	0.843475	0.0128249	0.114045
266888351	O	0.841454	0.952921	0.131186
266888351	C	0.851684	0.938187	0.126572
266888351	H	0.822893	0.976366	0.156473
266888351	H	0.81247	0.989006	0.142023
266888351	C	0.911129	0.0267696	0.131339
266888351	O	0.825637	0.0298186	0.158929
266888351	O	0.850499	0.0248399	0.180453
266888351	C	0.844226	0.029566	0.163333
266888351	Fe	0.838806	0.0373881	0.204693
266888351	O	0.828818	0.0526335	0.228588
266888351	C	0.817659	0.0465005	0.243156
266888351	O	0.811415	0.0288431	0.244473
266888351	O	0.772604	0.0346197	0.186952
266888351	O	0.780186	0.0372425	0.218755
266888351	O	0.833936	0.0621284	0.188221
266888351	Fe	0.799583	0.0315204	0.174489
266888351	O	0.812238	0.0268535	0.199692
266888351	Fe	0.7981	0.0127049	0.220872
266888351	O	0.845717	0.0126204	0.222924
266888351	O	0.780106	0.999733	0.240375
266888351	O	0.820556	0.990704	0.226924
266888351	C	0.838882	0.996409	0.230261
266888351	O	0.784031	0.99354	0.199711
266888351	O	0.786666	0.0366844	0.146614
266888351	O	0.803306	0.0615175	0.175329
266888351	O	0.793729	0.00174414	0.169194
266888351	C	0.786291	0.989093	0.181013
266888351	F	0.864544	0.0473828	0.209617
266888351	O	0.905613	0.0169526	0.253316
266888351	F	0.911912	0.0531035	0.231272
266888351	C	0.907087	0.995543	0.178068
266888351	C	0.895363	0.98206	0.164075
266888351	H	0.912266	0.0100938	0.17328
266888351	C	0.850853	0.045619	0.131083
266888351	C	0.877692	0.0282668	0.146812
266888351	C	0.889803	0.0312572	0.130691
266888351	C	0.857909	0.0341024	0.146726
266888351	H	0.884658	0.0222379	0.159235
266888351	H	0.83516	0.0503647	0.130067
266888351	C	0.773039	0.964856	0.1534
266888351	C	0.775981	0.969693	0.173457
266888351	H	0.777398	0.974248	0.141855
266888351	C	0.870348	0.992468	0.247826
266888351	C	0.850438	0.987309	0.246494
266888351	H	0.87733	1.705e-05	0.235649
266888351	C	0.861496	0.0449315	0.267578
266888351	O	0.82866	0.887825	0.32011
266888351	O	0.784128	0.896453	0.31734
266888351	Fe	0.837805	0.91661	0.314748
266888351	O	0.811243	0.927799	0.316665
266888351	O	0.775565	0.935633	0.297428
266888351	O	0.81071	0.930329	0.272851
266888351	O	0.866096	0.904342	0.313886
266888351	O	0.83581	0.911789	0.286269
266888351	C	0.824818	0.916931	0.271435
266888351	H	0.871024	0.902703	0.328143
266888351	H	0.875555	0.913405	0.307433
266888351	H	0.807301	0.881583	0.262699
266888351	O	0.790974	0.963476	0.325239
266888351	O	0.85081	0.943294	0.303104
266888351	O	0.825159	0.965019	0.299042
266888351	C	0.843002	0.959671	0.295151
266888351	Fe	0.801394	0.948114	0.29875
266888351	O	0.789352	0.97046	0.279989
266888351	H	0.796812	0.969379	0.267449
266888351	H	0.792911	0.983339	0.285143
266888351	O	0.866469	0.0366964	0.249069
266888351	O	0.776338	0.0502839	0.317001
266888351	C	0.776213	0.065748	0.30505
266888351	O	0.917739	0.991312	0.270202
266888351	C	0.903176	6.8096e-05	0.26266
266888351	C	0.79915	0.0539484	0.275703
266888351	C	0.79268	0.068493	0.290375
266888351	C	0.813506	0.0595308	0.260911
266888351	H	0.791734	0.0391718	0.275033
266888351	H	0.916827	0.0473901	0.311785
266888351	C	0.885791	0.0729766	0.26378
266888351	C	0.873013	0.0619195	0.275537
266888351	C	0.869377	0.0682252	0.294159
266888351	H	0.886865	0.0724644	0.247011
266888351	H	0.857996	0.0613917	0.30327
266888351	C	0.842842	0.977199	0.2626
266888351	C	0.854122	0.971601	0.279425
266888351	C	0.882113	0.990555	0.264395
266888351	C	0.874932	0.977962	0.279877
266888351	H	0.884639	0.973124	0.29281
266888351	H	0.827433	0.973112	0.259982
266888351	H	0.877794	0.0427787	0.244772
266888351	O	0.848476	0.0369526	0.278661
266888351	H	0.830037	0.882166	0.307014
266888351	O	0.858524	0.978738	0.0999331
266888351	H	0.88785	0.8535	0.27255
266888351	C	0.771128	0.0444602	0.203573
266888351	O	0.866842	0.939324	0.115543
266888351	H	0.774216	0.990348	0.113379
266888351	C	0.88194	0.0410022	0.113792
266888351	H	0.781254	0.0785165	0.228571
266888351	C	0.820383	0.0789956	0.260016
266888351	C	0.819375	0.0709889	0.179597
266888351	O	0.921449	0.0686734	0.113138
266888351	F	0.919695	0.0720866	0.155549
266888351	O	0.907684	0.885315	0.287142
266888351	C	0.892246	0.962556	0.171395
266888351	Fe	0.904374	0.865189	0.205026
266888351	H	0.88478	0.951156	0.162272
266888351	O	0.920692	0.0158478	0.118852
266888351	C	0.912845	0.989183	0.197938
266888351	H	0.7955	0.044887	0.138895
266888351	O	0.92122	0.0339609	0.143977
266888351	H	0.784964	0.0239774	0.139675
266888351	H	0.829204	0.0845395	0.247145
266888351	O	0.911826	0.93226	0.210649
266888351	H	0.913229	0.895887	0.296022
266888351	C	0.860913	0.0433305	0.112562
266888351	C	0.77237	0.0813446	0.215874
266888351	H	0.794089	0.898453	0.306019
266888351	F	0.794442	0.0750523	0.111262
266888351	H	0.909827	0.930488	0.251005
266888351	O	0.922036	0.92395	0.251005
266888351	C	0.922086	0.871473	0.285385
266888351	Fe	0.919419	0.907405	0.225407
266888351	O	0.91735	0.890587	0.201415
266888351	C	0.904828	0.936192	0.193965
266888351	C	0.899731	0.956894	0.189505
266888351	O	0.816078	0.978473	0.106367
266888351	Fe	0.790706	0.919494	0.33606
266888351	C	0.854392	0.0243282	0.103391
266888351	Fe	0.77761	0.849863	0.168143
266888351	Fe	0.881769	0.962032	0.100248
266888351	C	0.880629	0.0829648	0.304458
266888351	C	0.800868	0.0877606	0.288213
266888351	H	0.787561	0.885278	0.324685
266888351	O	0.870411	0.0707996	0.337448
266888351	C	0.906768	0.970256	0.203034
266888351	H	0.806288	0.0868448	0.147238
266888351	Fe	0.921478	0.899513	0.173804
266888351	O	0.903837	0.923418	0.179352
266888351	O	0.917901	0.852485	0.180114
266888351	C	0.899115	0.087291	0.272348
266888351	C	0.876686	0.0862514	0.327171
266888351	O	0.764667	0.934852	0.326751
266888351	C	0.772516	0.996015	0.0982288
266888351	C	0.768784	0.855683	0.287924
266888351	C	0.924701	0.999734	0.215451
266888351	H	0.771673	0.85597	0.271897
266888351	H	0.910601	0.964247	0.217361
266888351	H	0.890958	0.0413506	0.10014
266888351	C	0.918747	0.851266	0.275946
266888351	H	0.766975	0.00512294	0.236305
266888351	H	0.780049	0.986083	0.238212
266888351	C	0.768679	0.957299	0.187495
266888351	O	0.906102	0.942903	0.0979842
266888351	O	0.927641	0.018842	0.216889
266888351	O	0.847468	0.863658	0.0968698
266888351	H	0.77004	0.961558	0.203538
266888351	O	0.927763	0.883322	0.241672
266888351	F	0.925319	0.908596	0.14714
266888351	H	0.0907987	0.941054	0.115493
266888351	C	0.821867	0.0916898	0.17363
266888351	C	0.821729	0.848719	0.251065
266888351	O	0.925946	0.049129	0.271171
266888351	O	0.777849	0.881529	0.096232
266888351	H	0.0936588	0.0010626	0.188809
266888351	O	0.764483	0.938887	0.25391
266888351	C	0.0625994	0.883455	0.342532
266888351	H	0.917994	0.950953	0.0985209
266888351	H	0.92284	0.915361	0.263154
266888351	O	0.76318	0.079473	0.304496
266888351	C	0.764639	0.0654149	0.20374
266888351	C	0.931061	0.053718	0.315382
266888351	O	0.823139	0.847727	0.269394
266888351	Fe	0.928748	0.0340452	0.243796
266888351	H	0.913523	0.0899802	0.196835
266888351	C	0.897235	0.0922064	0.292944
266888351	C	0.791434	0.959873	0.344379
266888351	F	0.838912	0.845699	0.304396
266888351	O	0.993051	0.0917874	0.324098
266888351	H	0.00327032	0.0924722	0.111039
266888351	O	0.0902497	0.915754	0.165717
266888351	C	0.00305042	0.947079	0.326796
266888351	F	0.0827766	0.953909	0.225786
266888351	O	0.0907452	0.013218	0.196667
266888351	C	0.0418508	0.98153	0.116986
266888351	O	0.090513	0.0667399	0.32951
266888351	O	0.939332	0.875382	0.168657
266888351	O	0.764569	0.0927115	0.132232
266888351	H	0.0215037	0.860016	0.116092
266888351	C	0.813487	0.0935623	0.27361
266888351	O	0.989558	0.000896352	0.268778
266888351	H	0.0412853	0.851906	0.108825
266888351	C	0.0570811	0.0377541	0.216841
266888351	C	0.762957	0.94148	0.309709
266888351	C	0.967311	0.0895156	0.179395
266888351	O	0.0634551	0.901758	0.342589
266888351	C	0.0786252	0.863695	0.15698
266888351	H	0.84894	0.853204	0.10675
266888351	H	0.919821	0.852067	0.0954677
266888351	H	0.0645233	0.85265	0.208265
266888351	H	0.974514	0.0728648	0.296127
266888351	H	0.873616	0.0268809	0.342008
266888351	C	0.957142	0.0591446	0.340157
266888351	Fe	0.0344022	0.951675	0.168215
266888351	C	0.0873721	0.95312	0.294349
266888351	H	0.0165318	0.859109	0.255816
266888351	O	0.0340039	0.92031	0.165532
266888351	O	0.946975	0.914652	0.180502
266888351	H	0.0558248	0.948129	0.244435
266888351	C	0.0651738	0.922978	0.301997
266888351	C	0.0504792	0.984385	0.0982515
266888351	H	0.055021	0.850893	0.295279
266888351	H	0.961676	0.887721	0.328757
266888351	C	0.967717	0.999109	0.343148
266888351	C	0.00930066	0.963328	0.234654
266888351	C	0.0443159	0.854996	0.164017
266888351	C	0.972653	0.0331442	0.196515
266888351	O	0.990495	0.892577	0.294576
266888351	C	0.045905	0.910936	0.15239
266888351	C	0.969431	0.0675833	0.326092
266888351	H	0.981261	0.967025	0.304095
266888351	O	0.956002	0.0158055	0.153896
266888351	C	0.0494957	0.0203915	0.209532
266888351	H	0.00628132	0.0661747	0.217167
266888351	H	0.0808177	0.889242	0.140827
266888351	O	0.958081	0.987115	0.288667
266888351	H	0.0912683	0.853658	0.339039
266888351	O	0.0711013	0.991331	0.266879
266888351	O	0.999398	0.877014	0.335611
266888351	H	0.955739	0.910885	0.232912
266888351	C	0.0446697	0.978062	0.249999
266888351	H	0.957068	0.0759161	0.181632
266888351	O	0.930677	0.988744	0.229764
266888351	O	0.0833925	0.921536	0.203741
266888351	C	0.00144137	0.863719	0.251927
266888351	H	0.961466	0.0222145	0.201601
266888351	O	0.981553	0.0344893	0.242833
266888351	H	0.040865	0.0857566	0.302234
266888351	O	0.939491	0.875378	0.29164
266888351	C	0.0510006	0.991645	0.186214
266888351	C	0.00862572	0.979544	0.248139
266888351	O	0.949971	0.912385	0.219703
266888351	O	0.0437825	0.0634575	0.343112
266888351	O	0.965416	0.901976	0.32782
266888351	O	0.0484378	0.936083	0.210999
266888351	C	0.963493	0.0673426	0.306666
266888351	O	0.931212	0.857958	0.220712
266888351	H	0.961723	0.907942	0.340416
266888351	O	0.0198353	0.889151	0.280131
266888351	O	0.0754242	0.85676	0.217164
266888351	O	0.025003	0.904955	0.320266
266888351	O	0.0629029	0.946402	0.173261
266888351	C	0.990588	0.877316	0.262752
266888351	O	0.994831	0.0358616	0.108004
266888351	H	0.998952	0.0440154	0.155359
266888351	O	0.0549782	0.873886	0.328619
266888351	O	0.99921	0.0385359	0.282338
266888351	Fe	0.0729148	0.949943	0.200301
266888351	Fe	0.0844271	0.0166254	0.273344
266888351	Fe	0.0404531	0.921401	0.337484
266888351	O	0.954481	0.0424197	0.121285
266888351	C	0.0274166	0.987489	0.255305
266888351	C	0.03231	0.944904	0.21258
266888351	H	0.0231876	0.0737329	0.309237
266888351	H	0.00970522	0.029755	0.27706
266888351	O	0.0250429	0.952025	0.196778
266888351	O	0.957927	0.0526373	0.270255
266888351	H	0.960542	0.89102	0.264836
266888351	H	0.0277322	0.00119864	0.263388
266888351	Fe	0.945279	0.988735	0.257793
266888351	C	0.0189343	0.0721647	0.176989
266888351	O	0.963032	0.0181864	0.299283
266888351	O	0.952007	0.0772778	0.100878
266888351	H	0.94744	0.952424	0.243771
266888351	O	0.0348997	0.0771118	0.186118
266888351	C	0.972548	0.852608	0.232367
266888351	C	0.0758524	0.0666144	0.17133
266888351	C	0.933083	0.0796128	0.102327
266888351	Fe	0.972234	0.0559733	0.105545
266888351	H	0.0634655	0.0251901	0.160836
266888351	O	0.0608309	0.904722	0.296417
266888351	C	0.970056	0.992024	0.322434
266888351	O	0.056234	0.920914	0.140123
266888351	C	0.0163394	0.00628653	0.109924
266888351	C	0.996996	0.0176534	0.114028
266888351	C	0.933241	0.856937	0.169967
266888351	H	0.075566	0.871698	0.216738
266888351	F	0.0659393	0.0206108	0.293736
266888351	H	0.0171484	0.988218	0.13566
266888351	O	0.0380092	0.954273	0.138167
266888351	C	0.994913	0.043925	0.170899
266888351	C	0.981399	0.974871	0.31851
266888351	C	0.0118046	0.863762	0.331118
266888351	C	0.0508984	0.889369	0.15482
266888351	C	0.980802	0.0464558	0.20983
266888351	C	0.0012249	0.887061	0.280209
266888351	Fe	0.0786529	0.938953	0.150235
266888351	O	0.0338299	0.081524	0.314867
266888351	O	0.0769578	0.0836924	0.180652
266888351	H	0.996063	0.957144	0.174768
266888351	H	0.963877	0.855787	0.139656
266888351	C	0.0596593	0.0295378	0.176093
266888351	C	0.0239234	0.991567	0.122178
266888351	C	0.0639163	0.988781	0.250005
266888351	C	0.0642481	0.851149	0.163557
266888351	C	0.941737	0.0544467	0.280052
266888351	H	0.956209	0.904134	0.183688
266888351	O	0.982802	0.00869918	0.123409
266888351	H	0.0440385	0.00905701	0.220955
266888351	H	0.0718884	0.0649846	0.116177
266888351	H	0.0660969	0.866723	0.284757
266888351	C	0.959838	0.866036	0.242167
266888351	O	0.949555	0.984288	0.126308
266888351	C	0.971637	0.0435517	0.229452
266888351	C	0.969708	0.0829688	0.143103
266888351	C	0.978066	0.0328298	0.176464
266888351	O	0.953186	0.0495761	0.232208
266888351	C	0.0637669	0.0520793	0.203353
266888351	O	0.994282	0.934893	0.315499
266888351	C	0.0270099	0.952502	0.232261
266888351	O	0.0627033	0.0294658	0.253201
266888351	O	0.0306056	0.0695425	0.123893
266888351	C	0.0853084	0.9321	0.296998
266888351	H	0.0744772	0.962507	0.293709
266888351	Fe	0.995762	0.904535	0.323509
266888351	H	0.0814585	0.908084	0.173417
266888351	O	0.0540289	0.932445	0.313689
266888351	H	0.0670908	0.0823124	0.100961
266888351	H	0.00140448	0.942824	0.1565
266888351	H	0.996381	0.961268	0.225542
266888351	C	0.989626	0.988998	0.254407
266888351	O	0.0614196	0.980247	0.198241
266888351	C	0.00478005	0.0567541	0.185451
266888351	C	0.0710839	0.88192	0.150687
266888351	H	0.0182387	0.0623727	0.125715
266888351	C	0.944282	0.0607828	0.301061
266888351	C	0.050903	0.0146661	0.189435
266888351	H	0.0719006	0.0643497	0.210856
266888351	C	0.0375837	0.875017	0.162546
266888351	O	0.0689271	0.963411	0.134061
266888351	H	0.951862	0.953003	0.265926
266888351	O	0.941813	0.957767	0.256228
266888351	O	0.0522146	0.862842	0.287164
266888351	C	0.987763	0.0764123	0.332201
266888351	Fe	0.972327	0.0264518	0.27014
266888351	H	0.0221326	0.879215	0.164454
266888351	H	0.960579	0.978612	0.119117
266888351	C	0.0661214	0.0483785	0.182546
266888351	O	0.0404963	0.983061	0.171914
266888351	O	0.981766	0.0713973	0.133047
266888351	C	0.938311	0.869056	0.23463
266888351	O	0.0863414	0.0379918	0.233623
266888351	C	0.0505854	0.966092	0.130347
266888351	C	0.961501	0.0316691	0.163738
266888351	H	0.99777	0.0354732	0.296369
266888351	H	0.952334	0.927094	0.218118
266888351	O	0.0134774	0.081224	0.161306
266888351	C	0.0440043	0.958853	0.243076
266888351	C	0.991921	0.96512	0.332729
266888351	O	0.952128	0.0831784	0.136349
266888351	C	0.992697	0.850743	0.237603
266888351	Fe	0.952553	0.0142678	0.12225
266888351	H	0.0851272	0.919391	0.218892
266888351	O	0.948495	0.0166379	0.256601
266888351	O	0.0187907	0.86358	0.313377
266888351	O	0.0738955	0.994098	0.232991
266888351	C	0.0679495	0.0362655	0.236019
266888351	Fe	0.936484	0.0581367	0.138162
266888351	O	0.0634936	0.0764354	0.114185
266888351	C	0.961906	0.99977	0.302967
266888351	O	0.00416891	0.95618	0.161944
266888351	O	0.0805209	0.067077	0.152469
266888351	O	0.95302	0.0488095	0.160783
266888351	O	0.0193952	0.944395	0.335597
266888351	O	0.97338	0.984571	0.245107
266888351	H	0.938053	0.979917	0.117792
266888351	C	0.969499	0.879277	0.256866
266888351	C	0.998134	0.0573295	0.205742
266888351	Fe	0.0381746	0.883899	0.304549
266888351	C	0.937795	0.053513	0.33561
266888351	O	0.0272033	0.848596	0.108804
266888351	H	0.0606204	0.0945403	0.217751
266888351	O	0.933409	0.0941797	0.26462
266888351	C	0.830146	0.908298	0.354623
266888351	O	0.796896	0.863447	0.416631
266888351	C	0.807686	0.859916	0.401527
266888351	C	0.838694	0.879078	0.410426
266888351	C	0.851036	0.903265	0.385939
266888351	C	0.824419	0.873325	0.396821
266888351	C	0.836229	0.897304	0.372207
266888351	C	0.824342	0.880575	0.377514
266888351	C	0.852141	0.893779	0.404749
266888351	H	0.860517	0.915431	0.381103
266888351	H	0.81443	0.873696	0.366216
266888351	Fe	0.822895	0.0102173	0.426992
266888351	O	0.807904	0.990854	0.41013
266888351	C	0.788889	0.993873	0.409171
266888351	O	0.779079	0.00507746	0.421811
266888351	O	0.803799	0.0308066	0.417516
266888351	C	0.796276	0.0453405	0.425336
266888351	F	0.836699	0.0184067	0.405134
266888351	O	0.885249	0.0439698	0.389497
266888351	C	0.893192	0.0505014	0.405659
266888351	Fe	0.879525	0.0582281	0.36329
266888351	O	0.866648	0.0334282	0.352778
266888351	C	0.889657	0.0405832	0.424764
266888351	H	0.858053	0.0386021	0.420973
266888351	C	0.787643	0.979692	0.375418
266888351	C	0.77715	0.985661	0.392215
266888351	C	0.778849	0.971459	0.358584
266888351	H	0.803894	0.979626	0.376177
266888351	O	0.907222	0.906399	0.457291
266888351	O	0.878964	0.911872	0.47395
266888351	C	0.893202	0.917399	0.462951
266888351	Fe	0.872303	0.886551	0.490338
266888351	O	0.863435	0.862135	0.506948
266888351	O	0.866492	0.86824	0.466828
266888351	Fe	0.91625	0.877279	0.464857
266888351	O	0.900332	0.876674	0.491029
266888351	O	0.874371	0.904906	0.515256
266888351	C	0.888707	0.907579	0.527843
266888351	O	0.892614	0.865645	0.447329
266888351	F	0.846789	0.895664	0.487811
266888351	O	0.797213	0.918763	0.508659
266888351	H	0.821174	0.892861	0.509291
266888351	O	0.82282	0.878718	0.509424
266888351	O	0.779895	0.913376	0.546107
266888351	Fe	0.775012	0.865684	0.545571
266888351	O	0.782205	0.880579	0.522856
266888351	Fe	0.794955	0.867182	0.500595
266888351	O	0.792082	0.890929	0.481394
266888351	O	0.792251	0.886884	0.561474
266888351	C	0.791139	0.905685	0.558759
266888351	C	0.888754	0.925042	0.541787
266888351	C	0.873416	0.92913	0.555263
266888351	H	0.860139	0.92043	0.553448
266888351	H	0.826955	0.87489	0.522962
266888351	O	0.92149	0.0326381	0.528289
266888351	O	0.873094	0.0569099	0.500635
266888351	Fe	0.896913	0.045164	0.51434
266888351	O	0.881214	0.0173761	0.517812
266888351	O	0.908729	0.0320437	0.490547
266888351	C	0.912149	0.0390523	0.473653
266888351	H	0.873101	0.0165613	0.505617
266888351	H	0.892101	0.00738853	0.518031
266888351	O	0.844438	0.0105821	0.472077
266888351	O	0.834456	0.0300101	0.446897
266888351	C	0.848064	0.0233977	0.458131
266888351	O	0.798241	0.969626	0.470379
266888351	O	0.848	0.991923	0.432258
266888351	Fe	0.820483	0.990527	0.47256
266888351	O	0.8077	0.00453209	0.450941
266888351	Fe	0.781106	0.0140043	0.450945
266888351	O	0.788505	0.0436046	0.443306
266888351	O	0.834966	0.975585	0.495091
266888351	O	0.836043	0.971075	0.453532
266888351	O	0.805818	0.00356831	0.497682
266888351	C	0.850025	0.976295	0.442381
266888351	C	0.788655	0.0116877	0.498777
266888351	H	0.84748	0.970998	0.489072
266888351	H	0.8258	0.964032	0.497028
266888351	O	0.840073	0.0183471	0.55236
266888351	O	0.815565	0.0307425	0.570439
266888351	C	0.826349	0.0316654	0.554922
266888351	O	0.846954	0.960846	0.573679
266888351	Fe	0.844415	0.989426	0.563979
266888351	O	0.849521	0.980104	0.535184
266888351	O	0.816131	0.98136	0.5588
266888351	O	0.873954	0.995893	0.56908
266888351	C	0.804334	0.976741	0.573124
266888351	C	0.884156	0.0034058	0.583953
266888351	H	0.861854	0.972203	0.535265
266888351	H	0.854236	0.992641	0.528592
266888351	C	0.904657	0.047252	0.566828
266888351	C	0.902027	0.0142612	0.580258
266888351	C	0.89948	0.0271086	0.564812
266888351	C	0.811105	0.0638543	0.538975
266888351	C	0.82611	0.0492007	0.540331
266888351	C	0.840549	0.049619	0.525696
266888351	H	0.79966	0.063075	0.549578
266888351	H	0.852599	0.0397426	0.525902
266888351	C	0.883674	0.022129	0.461462
266888351	C	0.905228	0.0400535	0.438508
266888351	C	0.867845	0.0260478	0.449876
266888351	C	0.871285	0.0344488	0.430459
266888351	C	0.902492	0.0308452	0.456892
266888351	H	0.88106	0.0150143	0.475663
266888351	C	0.894111	0.955123	0.570425
266888351	C	0.905528	0.93837	0.540727
266888351	C	0.8766	0.94431	0.570399
266888351	C	0.871873	0.946834	0.452339
266888351	C	0.88873	0.976276	0.436753
266888351	C	0.890727	0.937141	0.45376
266888351	C	0.907703	0.967233	0.440006
266888351	C	0.908332	0.947971	0.447142
266888351	C	0.870575	0.966243	0.442741
266888351	H	0.887701	0.990004	0.428781
266888351	H	0.858637	0.939466	0.455902
266888351	H	0.799328	0.932325	0.515082
266888351	C	0.868353	0.899295	0.418399
266888351	H	0.786562	0.896522	0.438382
266888351	O	0.883977	0.910197	0.410599
266888351	O	0.887548	0.855034	0.527866
266888351	C	0.782131	0.911391	0.442778
266888351	H	0.893947	0.910974	0.421564
266888351	H	0.83827	0.873354	0.42585
266888351	O	0.866013	0.89668	0.436528
266888351	C	0.784616	0.920438	0.407317
266888351	O	0.785478	0.900758	0.402569
266888351	C	0.780621	0.925803	0.428086
266888351	C	0.922624	0.0545506	0.351781
266888351	C	0.861285	0.954491	0.583346
266888351	H	0.922681	0.94073	0.451215
266888351	H	0.919439	0.0491365	0.43652
266888351	H	0.890567	0.0227161	0.552402
266888351	O	0.886082	0.0561692	0.539307
266888351	O	0.912169	0.070522	0.510613
266888351	C	0.908964	0.953016	0.555371
266888351	C	0.781355	0.969313	0.461282
266888351	C	0.779573	0.0129732	0.519785
266888351	C	0.877568	0.85787	0.4545
266888351	C	0.89835	0.0620243	0.551776
266888351	C	0.774188	0.997637	0.53424
266888351	H	0.815515	0.939037	0.554303
266888351	O	0.780489	0.0201398	0.482871
266888351	O	0.904037	0.896301	0.529021
266888351	C	0.782216	0.0670946	0.396916
266888351	C	0.772554	0.0212491	0.561287
266888351	C	0.797807	0.0640871	0.410931
266888351	O	0.905403	0.06541	0.406342
266888351	C	0.77278	0.071764	0.360837
266888351	O	0.853594	0.0649696	0.378554
266888351	C	0.805099	0.938452	0.567626
266888351	C	0.77477	0.0362499	0.547228
266888351	C	0.777785	0.0325139	0.527025
266888351	O	0.772385	0.0657693	0.566144
266888351	C	0.809683	0.0787666	0.523459
266888351	C	0.796694	0.956123	0.575542
266888351	C	0.768643	0.00236146	0.554986
266888351	H	0.780347	0.957075	0.423725
266888351	C	0.870334	0.852431	0.521555
266888351	O	0.773952	0.0786184	0.516921
266888351	O	0.772926	0.984724	0.45557
266888351	C	0.777736	0.945153	0.433958
266888351	C	0.797229	0.919936	0.572996
266888351	H	0.91649	0.935262	0.529521
266888351	H	0.828779	0.0666816	0.414581
266888351	C	0.786453	0.0757906	0.377968
266888351	C	0.817036	0.0695933	0.404964
266888351	C	0.774281	0.950608	0.453737
266888351	O	0.92181	0.0547954	0.4726
266888351	H	0.778385	0.0447363	0.516599
266888351	Fe	0.912626	0.869503	0.517028
266888351	F	0.772011	0.909698	0.355093
266888351	C	0.820968	0.0781711	0.386342
266888351	O	0.891484	0.0835635	0.371461
266888351	C	0.841784	0.0797239	0.378148
266888351	Fe	0.916554	0.0840003	0.385124
266888351	C	0.827004	0.0810285	0.512419
266888351	O	0.904772	0.0794103	0.551362
266888351	C	0.8645	0.0709676	0.509407
266888351	C	0.842607	0.0673169	0.514135
266888351	C	0.913763	0.0537718	0.58433
266888351	C	0.805473	0.0823802	0.373657
266888351	H	0.772731	0.981986	0.530134
266888351	C	0.775766	0.915569	0.461824
266888351	H	0.766964	0.0605518	0.398766
266888351	O	0.796711	0.94355	0.351141
266888351	C	0.775365	0.900628	0.477785
266888351	Fe	0.770356	0.906896	0.518571
266888351	C	0.772022	0.935037	0.467286
266888351	H	0.89661	0.966969	0.581092
266888351	O	0.775329	0.852594	0.359524
266888351	O	0.768506	0.858623	0.493998
266888351	O	0.807377	0.853371	0.47703
266888351	O	0.927474	0.0613504	0.368399
266888351	C	0.789704	0.0893622	0.519112
266888351	F	0.779985	0.850437	0.452103
266888351	O	0.873285	0.0837593	0.520295
266888351	H	0.915242	0.0692806	0.58439
266888351	H	0.818391	0.861688	0.472927
266888351	O	0.797539	0.9902	0.585008
266888351	O	0.785392	0.934125	0.393758
266888351	C	0.0933397	0.893658	0.404324
266888351	O	0.92575	0.860632	0.544168
266888351	H	0.786711	0.899433	0.387841
266888351	H	0.770779	0.939192	0.482792
266888351	O	0.800252	0.849294	0.544106
266888351	C	0.927601	0.963889	0.556967
266888351	C	0.928695	0.977926	0.439256
266888351	C	0.765697	0.0546687	0.552832
266888351	O	0.778911	0.0219434	0.349595
266888351	O	0.924837	0.846565	0.469414
266888351	H	0.915592	0.854202	0.552798
266888351	O	0.0929773	0.974502	0.474302
266888351	C	0.783841	0.919336	0.589034
266888351	O	0.928123	0.928565	0.585153
266888351	H	0.0264189	0.956049	0.592145
266888351	Fe	0.772375	0.84719	0.426113
266888351	H	0.0857741	0.966148	0.464802
266888351	O	0.761814	0.0569251	0.362163
266888351	O	0.999189	0.0675122	0.345213
266888351	H	0.943431	0.869086	0.441596
266888351	O	0.769616	0.847413	0.570356
266888351	C	0.0196647	0.849592	0.344906
266888351	F	0.0825605	0.845136	0.485616
266888351	H	0.855679	0.0391214	0.34598
266888351	H	0.827554	0.0923471	0.500612
266888351	H	0.765012	0.0257996	0.575274
266888351	H	0.766228	0.857218	0.580043
266888351	C	0.780277	0.953987	0.588692
266888351	O	0.813076	0.904488	0.348156
266888351	H	0.809846	0.0898318	0.360528
266888351	O	0.838487	0.998607	0.591034
266888351	H	0.775844	0.905301	0.591987
266888351	O	0.904905	0.0512925	0.347169
266888351	H	0.0390746	0.855005	0.588133
266888351	O	0.0383714	0.0920193	0.587131
266888351	O	0.932675	0.890784	0.401706
266888351	H	0.935416	0.866938	0.375503
266888351	H	0.930326	0.0233717	0.40661
266888351	O	0.771024	0.0837524	0.346541
266888351	H	0.0440251	0.846067	0.501672
266888351	H	0.991572	0.88459	0.59239
266888351	C	0.977557	0.987958	0.359086
266888351	Fe	0.947291	0.951428	0.593456
266888351	H	0.0893545	0.0275158	0.400924
266888351	Fe	0.00395785	0.986715	0.421033
266888351	O	0.0239575	0.0270772	0.542129
266888351	C	0.0923705	0.897357	0.458758
266888351	H	0.0669149	0.00711183	0.446493
266888351	O	0.00188366	0.845402	0.591161
266888351	O	0.054093	0.873265	0.473614
266888351	H	0.929154	0.873232	0.551674
266888351	C	0.000190033	0.921927	0.39781
266888351	H	0.0185075	0.992952	0.544008
266888351	F	0.0553068	0.938276	0.352129
266888351	O	0.0434161	0.039493	0.579554
266888351	C	0.00943196	0.909004	0.365017
266888351	H	0.953684	0.0844363	0.390178
266888351	Fe	0.958439	0.93669	0.54332
266888351	O	0.940307	0.961778	0.543268
266888351	C	0.0400103	0.906077	0.467187
266888351	O	0.0772513	0.850325	0.44329
266888351	C	0.994911	0.963137	0.538119
266888351	O	0.0906695	0.982911	0.516545
266888351	H	0.987238	0.0668532	0.410274
266888351	H	0.0606142	0.0824258	0.372301
266888351	H	0.956765	0.0107134	0.345789
266888351	C	0.0828745	0.0475984	0.533179
266888351	H	0.0199153	0.887063	0.406651
266888351	Fe	0.935248	0.0713324	0.49225
266888351	H	0.0112589	0.932538	0.395194
266888351	Fe	0.901946	0.0935709	0.523963
266888351	Fe	0.958759	0.00828446	0.424429
266888351	O	0.974568	0.911949	0.540127
266888351	C	0.0411274	0.938528	0.481757
266888351	O	0.933846	0.988636	0.424419
266888351	C	0.0772456	0.991218	0.527292
266888351	H	0.98352	0.880776	0.374129
266888351	F	0.957379	0.0706096	0.476047
266888351	H	0.0816092	0.072854	0.578134
266888351	C	0.00187437	0.067182	0.417555
266888351	O	0.97986	0.95371	0.531644
266888351	O	0.0806513	0.0112235	0.44681
266888351	H	0.998694	0.95632	0.496804
266888351	C	0.00888331	0.0505306	0.425733
266888351	C	0.990187	0.972232	0.353163
266888351	O	0.0687955	0.0664221	0.576787
266888351	C	0.00663051	0.974429	0.522501
266888351	H	0.0363506	0.9972	0.40542
266888351	C	0.0399364	0.871885	0.541881
266888351	H	0.961989	0.0578195	0.355738
266888351	C	0.0150252	0.0833298	0.415023
266888351	C	0.984062	0.926407	0.410171
266888351	H	0.0467608	0.907436	0.435498
266888351	O	0.0599868	0.0660724	0.512613
266888351	Fe	0.970605	0.970757	0.454361
266888351	H	0.0609804	0.940136	0.399082
266888351	H	0.974484	0.873641	0.460571
266888351	C	0.0335605	0.0838726	0.423505
266888351	H	0.0619733	0.893219	0.380565
266888351	C	0.961452	0.861495	0.487491
266888351	O	0.0586469	0.922055	0.551485
266888351	C	0.0470499	0.949918	0.499543
266888351	C	0.0385635	0.883917	0.46852
266888351	C	0.04375	0.915761	0.44839
266888351	C	0.0108121	0.978171	0.464423
266888351	Fe	0.0598696	0.951708	0.541521
266888351	O	0.0766173	0.0695298	0.427489
266888351	H	0.0513131	0.0316583	0.570883
266888351	C	0.019346	0.863822	0.542498
266888351	H	0.0264332	0.0122669	0.482427
266888351	O	0.000960182	0.853841	0.436541
266888351	O	0.00832192	0.0162454	0.42022
266888351	C	0.999264	0.906189	0.384065
266888351	C	0.0776485	0.86844	0.440775
266888351	O	0.0643718	0.0519593	0.453164
266888351	O	0.932684	0.969358	0.574458
266888351	O	0.999074	0.96392	0.459343
266888351	Fe	0.0193141	0.0487322	0.563985
266888351	H	0.0704538	0.954481	0.578431
266888351	H	0.0347465	0.0360222	0.440196
266888351	O	0.976887	0.988451	0.432336
266888351	O	0.980124	0.0304269	0.426733
266888351	C	0.96689	0.0184826	0.492192
266888351	C	0.0178878	0.990072	0.528124
266888351	H	0.0758508	0.0320597	0.418145
266888351	C	0.0718802	0.881106	0.377716
266888351	O	0.0828411	0.943354	0.525588
266888351	C	0.938216	0.0326222	0.520957
266888351	C	0.992435	0.911375	0.545172
266888351	O	0.0205948	0.889694	0.420805
266888351	F	0.0659474	0.0243556	0.482066
266888351	O	0.00375082	0.0872116	0.383048
266888351	H	0.0641012	0.0682884	0.591023
266888351	C	0.0725555	0.066764	0.526826
266888351	O	0.966292	0.944489	0.571167
266888351	O	0.95116	0.0889928	0.508969
266888351	H	0.045074	0.963084	0.462958
266888351	Fe	0.053294	0.0871836	0.560426
266888351	C	0.967063	0.913858	0.409301
266888351	H	0.0324069	0.97435	0.398841
266888351	H	0.944732	0.996102	0.500885
266888351	Fe	0.0234485	0.0760207	0.362767
266888351	O	0.0859973	0.93194	0.484976
266888351	O	0.940346	0.973041	0.452946
266888351	H	0.0668126	0.0288659	0.514442
266888351	H	0.991004	0.0400243	0.490648
266888351	C	0.0283802	0.0502834	0.435038
266888351	C	0.0822962	0.0107092	0.535059
266888351	C	0.0227941	0.00101279	0.493184
266888351	H	0.996447	0.963066	0.364778
266888351	O	0.0241418	0.87566	0.460972
266888351	H	0.0812551	0.907621	0.453218
266888351	C	0.972553	0.861002	0.469798
266888351	O	0.941064	0.0304646	0.414437
266888351	C	0.0607845	0.905739	0.541624
266888351	H	0.0521989	0.862395	0.546502
266888351	O	0.969644	0.948032	0.434452
266888351	H	0.939255	0.890897	0.440241
266888351	C	0.0139557	0.982974	0.487179
266888351	O	0.941292	0.889152	0.47924
266888351	Fe	0.030826	0.864366	0.434547
266888351	C	0.948971	0.879741	0.49276
266888351	C	0.0456607	0.936476	0.446302
266888351	O	0.0775881	0.901691	0.533439
266888351	C	0.991593	0.0535004	0.52999
266888351	Fe	0.0308037	0.0680563	0.517668
266888351	O	0.0719568	0.0821962	0.537082
266888351	O	0.932199	0.877522	0.438947
266888351	C	0.0522511	0.94549	0.427275
266888351	O	0.944789	0.0462178	0.508739
266888351	C	0.983358	0.892753	0.384928
266888351	O	0.957655	0.0160532	0.455804
266888351	O	0.992568	0.986381	0.391363
266888351	O	0.0613791	0.877305	0.435344
266888351	O	0.0315277	0.984021	0.409931
266888351	C	0.0761306	0.0289913	0.526387
266888351	O	0.0343645	0.0672997	0.54792
266888351	F	0.00414733	0.0304993	0.577467
266888351	O	0.0353577	0.85324	0.407096
266888351	O	0.000904171	0.0656432	0.519289
266888351	O	0.0311729	0.038692	0.512575
266888351	O	0.942873	0.0835632	0.400451
266888351	C	0.0415382	0.0669974	0.433543
266888351	C	0.0621406	0.0639289	0.438799
266888351	O	0.0771383	0.959337	0.56669
266888351	H	0.988378	0.872268	0.542794
266888351	O	0.997693	0.913486	0.351121
266888351	C	0.0383346	0.918232	0.484288
266888351	F	0.0208745	0.0502339	0.372716
266888351	H	0.937113	0.908372	0.541782
266888351	Fe	0.993625	0.942834	0.57799
266888351	C	0.00563621	0.896763	0.537324
266888351	O	0.972541	0.991992	0.473848
266888351	C	0.982097	0.0355633	0.521272
266888351	C	0.0277249	0.0250151	0.523429
266888351	H	0.953286	0.917764	0.417254
266888351	C	0.966478	0.00895594	0.472067
266888351	C	0.0427705	0.893147	0.538523
266888351	C	0.0440246	0.947341	0.463496
266888351	C	0.00561998	0.970168	0.501698
266888351	C	0.966949	0.897625	0.395806
266888351	C	0.984247	0.944605	0.422012
266888351	H	0.00670336	0.888829	0.425046
266888351	H	0.0386072	0.911911	0.498941
266888351	F	0.0371615	0.95887	0.555008
266888351	C	0.0252887	0.904028	0.536404
266888351	C	0.00279008	0.8769	0.540926
266888351	O	0.0814215	0.907826	0.409208
266888351	O	0.0523313	0.934118	0.41
266888351	H	0.966948	0.0282004	0.548624
266888351	O	0.0621803	0.981753	0.534419
266888351	F	0.95101	0.930755	0.517163
266888351	O	0.949339	0.86866	0.380669
266888351	C	0.0731095	0.871909	0.358603
266888351	H	0.944846	0.90654	0.562196
266888351	Fe	0.0861112	0.0342801	0.465977
266888351	H	0.0157762	0.0783248	0.485212
266888351	C	0.949113	0.885045	0.393798
266888351	H	0.0499402	0.0713953	0.389731
266888351	O	0.963474	0.000463844	0.392859
266888351	H	0.0263855	0.919821	0.534933
266888351	O	0.998883	0.9645	0.556879
266888351	Fe	0.0884223	0.957717	0.500602
266888351	O	0.0437627	0.943989	0.517469
266888351	O	0.0163818	0.989839	0.450827
266888351	O	0.999705	0.923914	0.55702
266888351	O	0.0238313	0.942219	0.585315
266888351	O	0.058708	0.964004	0.497613
266888351	O	0.091711	0.0574218	0.485662
266888351	C	0.0246623	0.00476251	0.514173
266888351	C	0.953345	0.0090725	0.504924
266888351	O	0.0477287	0.082194	0.381034
266888351	C	0.99832	0.0314417	0.422907
266888351	O	0.937748	0.916236	0.553353
266888351	F	0.965294	0.952424	0.474257
266888351	O	0.0897244	0.0296248	0.415343
266888351	H	0.948771	0.0383629	0.405249
266888351	O	0.0145762	0.0684062	0.589759
266888351	O	0.0272778	0.0693698	0.486234
266888351	C	0.977921	0.993434	0.381715
266888351	O	0.000907412	0.954984	0.421795
266888351	C	0.0885798	0.858095	0.354828
266888351	H	0.0210653	0.867988	0.37128
266888351	C	0.95132	0.0165313	0.524266
266888351	O	0.992822	0.0552967	0.549081
266888351	C	0.982219	0.0317392	0.500528
266888351	C	0.0209921	0.853145	0.365681
266888351	C	0.968487	0.0250946	0.53301
266888351	O	0.940791	0.881371	0.509432
266888351	O	0.0280117	0.910935	0.363708
266888351	H	0.0383459	0.0771691	0.480558
266888351	O	0.0617128	0.962045	0.427714
266888351	C	0.0869826	0.876836	0.39128
266888351	H	0.773005	0.012289	0.358334
266888351	H	0.785504	0.0311144	0.358729
266888351	H	0.9444	0.0722024	0.4087
266888351	H	0.0926374	0.990883	0.355316
266888351	H	0.90295	0.0919284	0.439839
266888351	C	0.772356	0.935293	0.591252
266888351	H	0.950975	0.845505	0.512176
266888351	H	0.905011	0.878057	0.592587
266888351	O	0.804732	0.845264	0.389279
266888351	H	0.0273725	0.931341	0.594565
266888351	H	0.0453612	0.0477689	0.34549
266888351	O	0.84113	0.920912	0.345678
266888351	O	0.828169	0.91938	0.757846
266888351	C	0.846658	0.91939	0.754733
266888351	Fe	0.779875	0.882111	0.693232
266888351	O	0.79081	0.907594	0.703294
266888351	C	0.791256	0.921643	0.690526
266888351	O	0.803808	0.920922	0.676901
266888351	O	0.844624	0.862236	0.691285
266888351	O	0.839878	0.895966	0.690854
266888351	C	0.847134	0.879771	0.699173
266888351	O	0.805907	0.876027	0.681321
266888351	Fe	0.821542	0.897019	0.666777
266888351	O	0.839419	0.918426	0.652824
266888351	O	0.801972	0.898792	0.643213
266888351	H	0.803975	0.911463	0.635453
266888351	O	0.839212	0.876123	0.652674
266888351	H	0.839449	0.915439	0.638641
266888351	H	0.852427	0.914123	0.65805
266888351	C	0.774496	0.936331	0.689455
266888351	C	0.79685	0.865321	0.762849
266888351	H	0.792391	0.879481	0.756156
266888351	C	0.858148	0.89869	0.727595
266888351	C	0.851952	0.883378	0.759236
266888351	C	0.855531	0.87989	0.719598
266888351	C	0.854067	0.86426	0.752681
266888351	C	0.857285	0.862191	0.731757
266888351	C	0.855346	0.900581	0.747683
266888351	H	0.856425	0.912617	0.719706
266888351	H	0.804656	0.887929	0.634132
266888351	C	0.833841	0.859284	0.646167
266888351	O	0.878121	0.036129	0.783295
266888351	O	0.857928	0.93422	0.76008
266888351	O	0.809771	0.999887	0.625158
266888351	C	0.816838	0.985313	0.634319
266888351	O	0.832455	0.977158	0.627411
266888351	Fe	0.855586	0.991001	0.613483
266888351	O	0.83056	0.0368439	0.608901
266888351	O	0.873827	0.983585	0.63658
266888351	O	0.852256	0.0185498	0.626886
266888351	C	0.844441	0.0351728	0.622282
266888351	H	0.885202	0.992356	0.63594
266888351	H	0.8671	0.988563	0.648514
266888351	O	0.904427	0.062814	0.664422
266888351	C	0.77843	0.00358412	0.696243
266888351	Fe	0.791755	0.0431243	0.684659
266888351	O	0.809865	0.0678826	0.681604
266888351	C	0.82816	0.0645491	0.682798
266888351	O	0.835034	0.0579362	0.698478
266888351	O	0.810206	0.0742286	0.731132
266888351	C	0.792021	0.0753615	0.736833
266888351	O	0.798798	0.0404239	0.712851
266888351	Fe	0.823496	0.0500964	0.725127
266888351	O	0.815331	0.0245032	0.67882
266888351	O	0.849814	0.061879	0.735091
266888351	O	0.837333	0.0224575	0.71982
266888351	H	0.826704	0.0117155	0.720339
266888351	O	0.819306	0.0422082	0.753624
266888351	O	0.799492	0.0175442	0.750076
266888351	C	0.814463	0.0251809	0.758897
266888351	H	0.860609	0.0564274	0.72874
266888351	H	0.851196	0.0768229	0.732749
266888351	F	0.785213	0.045795	0.658608
266888351	C	0.821066	0.966729	0.665469
266888351	C	0.793339	0.989684	0.663604
266888351	C	0.818099	0.964714	0.685772
266888351	C	0.789926	0.987693	0.684404
266888351	C	0.802507	0.974803	0.69531
266888351	C	0.808594	0.978876	0.654177
266888351	H	0.78325	0.998244	0.655156
266888351	H	0.802466	0.973535	0.71198
266888351	H	0.833874	0.960477	0.65789
266888351	H	0.826629	0.987525	0.764539
266888351	H	0.780163	0.946137	0.65879
266888351	C	0.869663	0.0603717	0.637481
266888351	C	0.835329	0.0594487	0.648674
266888351	C	0.840651	0.0692279	0.666223
266888351	C	0.859609	0.0767992	0.668656
266888351	C	0.849607	0.0532145	0.634596
266888351	H	0.820354	0.0551695	0.645286
266888351	H	0.820315	0.0261264	0.664822
266888351	H	0.846071	0.019882	0.731793
266888351	O	0.831742	0.954362	0.717405
266888351	C	0.834098	0.954313	0.698387
266888351	O	0.849613	0.944337	0.689271
266888351	H	0.854813	0.935162	0.698574
266888351	O	0.8893	0.050551	0.754027
266888351	C	0.879444	0.052004	0.769845
266888351	Fe	0.871033	0.930138	0.787629
266888351	O	0.886515	0.923673	0.813695
266888351	O	0.824075	0.90807	0.829878
266888351	C	0.81594	0.924941	0.830117
266888351	Fe	0.81977	0.926598	0.786088
266888351	O	0.846443	0.916974	0.795757
266888351	Fe	0.846845	0.895939	0.814696
266888351	O	0.884569	0.904114	0.777298
266888351	O	0.873301	0.881383	0.799248
266888351	C	0.885144	0.88606	0.784088
266888351	O	0.828164	0.878259	0.798764
266888351	O	0.80499	0.89912	0.788423
266888351	C	0.811652	0.881532	0.790875
266888351	H	0.788777	0.930622	0.763237
266888351	C	0.898813	0.871201	0.772427
266888351	C	0.802391	0.863624	0.781782
266888351	H	0.847832	0.884708	0.773829
266888351	O	0.813754	0.935624	0.814917
266888351	O	0.859991	0.957316	0.798063
266888351	O	0.793061	0.937942	0.776561
266888351	O	0.831966	0.955286	0.78137
266888351	C	0.844046	0.965673	0.791617
266888351	H	0.783386	0.932859	0.786632
266888351	F	0.892851	0.942978	0.779395
266888351	O	0.828222	0.0725641	0.818998
266888351	C	0.827589	0.0270597	0.793934
266888351	C	0.84288	0.999311	0.810518
266888351	C	0.825054	0.0164442	0.776349
266888351	C	0.840296	0.987469	0.793237
266888351	C	0.829827	0.995864	0.777603
266888351	C	0.837247	0.0185171	0.810966
266888351	H	0.822483	0.0423614	0.793741
266888351	C	0.870291	0.0709642	0.776408
266888351	C	0.862118	0.0725632	0.795247
266888351	H	0.863635	0.0608669	0.806174
266888351	H	0.883503	0.0237389	0.777966
266888351	C	0.76973	0.946675	0.671363
266888351	C	0.908705	0.87462	0.752979
266888351	H	0.909312	0.889863	0.747866
266888351	O	0.771085	0.895431	0.667179
266888351	F	0.791066	0.0282652	0.602055
266888351	O	0.768628	0.0614026	0.689731
266888351	Fe	0.779065	0.0316157	0.730555
266888351	O	0.781178	0.0606471	0.74339
266888351	O	0.77239	0.0192032	0.687168
266888351	O	0.778046	0.00460902	0.715329
266888351	H	0.881758	0.0564336	0.627995
266888351	O	0.789777	0.0561527	0.816979
266888351	C	0.874223	0.0732573	0.653715
266888351	H	0.788413	0.0410839	0.815734
266888351	H	0.90526	0.0771128	0.731014
266888351	C	0.857978	0.858876	0.619323
266888351	C	0.895506	0.0789177	0.65965
266888351	C	0.91657	0.858551	0.741553
266888351	H	0.851681	0.992513	0.822588
266888351	O	0.787836	0.867333	0.720041
266888351	C	0.880644	0.915096	0.829885
266888351	C	0.834909	0.0285585	0.831223
266888351	O	0.817478	0.0337568	0.835942
266888351	H	0.794868	0.0598079	0.804229
266888351	O	0.862503	0.912765	0.832666
266888351	H	0.861435	0.874511	0.623399
266888351	C	0.920213	0.0788913	0.737131
266888351	O	0.877436	0.00388688	0.601292
266888351	H	0.915878	0.00987511	0.608465
266888351	C	0.900858	0.851372	0.779709
266888351	C	0.801093	0.85478	0.726464
266888351	O	0.866137	0.963523	0.599583
266888351	H	0.864989	0.0832814	0.682815
266888351	O	0.918721	0.0672301	0.620148
266888351	C	0.903533	0.867951	0.834121
266888351	C	0.920584	0.0489954	0.619279
266888351	C	0.871691	0.088529	0.76473
266888351	C	0.839981	0.0870458	0.820459
266888351	Fe	0.809699	0.0618868	0.840406
266888351	H	0.780158	0.995672	0.787056
266888351	C	0.84093	0.851182	0.627574
266888351	O	0.845729	0.875161	0.837289
266888351	Fe	0.814334	0.0134958	0.596772
266888351	C	0.80148	0.850784	0.748392
266888351	C	0.923666	0.874637	0.830472
266888351	H	0.878859	0.0860689	0.751226
266888351	C	0.923551	0.0853131	0.757313
266888351	O	0.798231	0.0887425	0.840545
266888351	C	0.916247	0.0399379	0.600112
266888351	O	0.766498	0.855947	0.682712
266888351	O	0.926083	0.856444	0.705644
266888351	C	0.88961	0.855329	0.598122
266888351	O	0.769164	0.986576	0.787566
266888351	O	0.894104	0.875149	0.602266
266888351	H	0.773591	0.966999	0.596393
266888351	C	0.852267	0.089983	0.801771
266888351	H	0.831566	0.872832	0.839296
266888351	C	0.857334	0.847217	0.766409
266888351	C	0.0929251	0.911051	0.79772
266888351	H	0.763418	0.0275349	0.763904
266888351	C	0.092277	0.938096	0.82271
266888351	C	0.870674	0.847451	0.607316
266888351	H	0.926225	0.972343	0.614929
266888351	C	0.89357	0.84833	0.827784
266888351	O	0.875567	0.850032	0.821983
266888351	O	0.926644	0.957375	0.616507
266888351	C	0.00183046	0.0923703	0.624634
266888351	H	0.914094	0.020344	0.668606
266888351	C	0.806689	0.844809	0.788958
266888351	Fe	0.817676	0.849849	0.685262
266888351	H	0.766001	0.0704003	0.604383
266888351	O	0.849016	0.0326648	0.843552
266888351	O	0.821268	0.848916	0.655583
266888351	O	0.926308	0.025546	0.675664
266888351	H	0.764853	0.932215	0.720088
266888351	C	0.0309526	0.928039	0.814585
266888351	O	0.927301	0.0393905	0.633823
266888351	C	0.914599	0.90858	0.840283
266888351	O	0.0238051	0.935533	0.798754
266888351	H	0.93561	0.95489	0.627905
266888351	H	0.780753	0.915994	0.842735
266888351	H	0.77005	0.0654135	0.843615
266888351	O	0.0604617	0.845036	0.778717
266888351	H	0.859011	0.847373	0.725658
266888351	O	0.85085	0.847421	0.784568
266888351	O	0.0327831	0.00214689	0.739453
266888351	C	0.895145	0.902258	0.841046
266888351	C	0.0513338	0.886116	0.655197
266888351	C	0.0246228	0.861734	0.792726
266888351	H	0.0915805	0.0779133	0.746972
266888351	O	0.0429546	0.0924249	0.802
266888351	Fe	0.0149261	0.0815007	0.75197
266888351	H	0.0206706	0.0431307	0.821482
266888351	H	0.00819483	0.0600836	0.723333
266888351	H	0.0768209	0.00154211	0.655221
266888351	O	0.97287	0.886658	0.721619
266888351	O	0.983624	0.87239	0.652465
266888351	C	0.0113078	0.0216304	0.780188
266888351	H	0.989447	0.860037	0.657274
266888351	H	0.920708	0.926124	0.597274
266888351	C	0.0240453	0.983321	0.787139
266888351	C	0.0643328	0.928677	0.802006
266888351	H	0.93461	0.01407	0.672245
266888351	O	0.952358	0.898422	0.698112
266888351	O	0.0443855	0.0827805	0.752938
266888351	H	0.0922244	0.98696	0.664836
266888351	C	0.0242393	0.0836915	0.596776
266888351	O	0.95636	0.94819	0.787009
266888351	O	0.0712855	0.862483	0.741607
266888351	C	0.0531827	0.0679861	0.76142
266888351	O	0.930804	0.092899	0.692299
266888351	C	0.0418551	0.0904812	0.835728
266888351	C	0.957581	0.0903914	0.748967
266888351	H	0.936889	0.965721	0.837353
266888351	C	0.0789665	0.944095	0.838424
266888351	C	0.992168	0.972164	0.798828
266888351	C	0.976449	0.932568	0.71431
266888351	C	0.998383	0.00871458	0.790833
266888351	Fe	0.0212505	0.999365	0.711638
266888351	C	0.0610277	0.875182	0.637979
266888351	O	0.960798	0.931692	0.613275
266888351	F	0.0102156	0.929896	0.76076
266888351	Fe	0.992203	0.906666	0.830325
266888351	O	0.941695	0.965419	0.823197
266888351	H	0.0317184	0.862367	0.663868
266888351	Fe	0.942679	0.0821465	0.624133
266888351	O	0.0689731	0.857873	0.808977
266888351	H	0.965522	0.0902313	0.717674
266888351	F	0.0506987	0.934481	0.740401
266888351	C	0.962052	0.920224	0.722693
266888351	O	0.961584	0.0448182	0.657714
266888351	Fe	0.933112	0.0531938	0.662075
266888351	O	0.991447	0.958688	0.785452
266888351	O	0.00204419	0.0206154	0.71955
266888351	C	0.997605	0.0232839	0.648607
266888351	C	0.0357512	0.848859	0.802842
266888351	O	0.987148	0.920631	0.596069
266888351	F	0.992551	0.855628	0.73655
266888351	O	0.984032	0.969358	0.815605
266888351	O	0.016543	0.948338	0.719099
266888351	O	0.0791926	0.986946	0.658128
266888351	C	0.0358051	0.989127	0.752855
266888351	O	0.00141581	0.0850903	0.819411
266888351	C	0.0845278	0.929303	0.805592
266888351	C	0.0873647	0.967376	0.71608
266888351	H	0.944138	0.902897	0.632415
266888351	O	0.970335	0.920385	0.775209
266888351	H	0.0491941	0.0684978	0.693274
266888351	C	0.0323761	0.907269	0.686575
266888351	C	0.960141	0.936137	0.77226
266888351	Fe	0.997576	0.927879	0.786267
266888351	H	0.948456	0.978254	0.82266
266888351	O	0.985758	0.927314	0.812964
266888351	O	0.063053	0.0692961	0.6983
266888351	H	0.0670979	0.850872	0.624597
266888351	O	0.0324518	0.0525618	0.819177
266888351	C	0.00378311	0.991386	0.634933
266888351	Fe	0.0816504	0.0836842	0.678224
266888351	O	0.96822	0.912897	0.659905
266888351	C	0.0084767	0.879585	0.689367
266888351	H	0.0300657	0.96832	0.787986
266888351	O	0.814546	0.847038	0.715067
266888351	C	0.0307757	0.0151973	0.775732
266888351	C	0.0377461	0.876393	0.667491
266888351	H	0.0241099	0.915992	0.696684
266888351	H	0.989881	0.0858118	0.615835
266888351	O	0.9942	0.891884	0.689056
266888351	H	0.0698802	0.853827	0.729251
266888351	C	0.981505	0.0269384	0.63563
266888351	O	0.0855832	0.895524	0.804151
266888351	C	0.0687804	0.0334005	0.719541
266888351	O	0.937537	0.0606859	0.692029
266888351	C	0.00485821	0.988692	0.793763
266888351	C	0.0559854	0.906278	0.659662
266888351	O	0.945331	0.920502	0.818564
266888351	C	0.976762	0.011988	0.621187
266888351	H	0.0562014	0.86306	0.746278
266888351	C	0.998414	0.884972	0.794963
266888351	C	0.957584	0.940987	0.750793
266888351	O	0.0160589	0.072743	0.722348
266888351	Fe	0.966652	0.885758	0.675551
266888351	C	0.0669169	0.0576357	0.747436
266888351	C	0.995126	0.852588	0.810736
266888351	O	0.07091	0.884592	0.625144
266888351	C	0.981074	0.976935	0.607287
266888351	O	0.00984227	0.00119897	0.68383
266888351	O	0.992521	0.963453	0.601366
266888351	H	0.96492	0.0146513	0.610762
266888351	O	0.00206445	0.978126	0.720754
266888351	O	0.940321	0.0794371	0.651483
266888351	H	0.0414243	0.0436024	0.812604
266888351	H	0.0864034	0.903617	0.735062
266888351	O	0.963002	0.0571434	0.62627
266888351	O	0.0689548	0.0073886	0.696238
266888351	C	0.929262	0.894397	0.834903
266888351	C	0.931687	0.8587	0.723915
266888351	H	0.0440282	0.0391607	0.737268
266888351	C	0.0192514	0.0010751	0.667347
266888351	H	0.948242	0.0806283	0.778202
266888351	C	0.972044	0.954037	0.742812
266888351	C	0.936542	0.0788293	0.723397
266888351	C	0.947973	0.871545	0.630872
266888351	O	0.0413089	0.978906	0.705429
266888351	H	0.0581618	0.921668	0.788071
266888351	H	0.0630711	0.0771133	0.711425
266888351	C	0.058121	0.0195313	0.706134
266888351	C	0.952789	0.891369	0.625561
266888351	C	0.0878791	0.0389915	0.715754
266888351	C	0.00752332	0.00540442	0.64905
266888351	O	0.950433	0.85617	0.728685
266888351	H	0.977712	0.967924	0.7507
266888351	C	0.982675	0.948675	0.726224
266888351	C	0.943712	0.0825561	0.762606
266888351	H	0.960491	0.924046	0.666464
266888351	C	0.0071073	0.042521	0.776711
266888351	O	0.963335	0.900504	0.838075
266888351	C	0.0515673	0.932255	0.818189
266888351	O	0.00765538	0.898474	0.786101
266888351	C	0.961592	0.900575	0.71442
266888351	C	0.934183	0.0768339	0.701276
266888351	Fe	0.0228889	0.0721588	0.797661
266888351	C	0.0271085	0.887149	0.681859
266888351	C	0.0566241	0.849818	0.79691
266888351	O	0.987234	0.0800606	0.75246
266888351	C	0.958278	0.856196	0.620021
266888351	O	0.0819122	0.899673	0.748974
266888351	C	0.987485	0.993725	0.620884
266888351	F	0.079849	0.0615846	0.661578
266888351	Fe	0.0592537	0.981714	0.682812
266888351	O	0.0141976	0.050451	0.76073
266888351	H	0.995075	0.881546	0.649858
266888351	Fe	0.0456537	0.956057	0.723884
266888351	H	0.031003	0.871245	0.781296
266888351	H	0.00577065	0.0815449	0.717268
266888351	O	0.0224856	0.913887	0.825129
266888351	O	0.0516736	0.953024	0.670486
266888351	C	0.940898	0.867723	0.65162
266888351	O	0.00174447	0.0529739	0.790617
266888351	O	0.96488	0.860668	0.689983
266888351	O	0.940324	0.881758	0.663811
266888351	F	0.94683	0.0843786	0.597022
266888351	H	0.0715371	0.08428	0.823712
266888351	C	0.973333	0.861143	0.60614
266888351	C	0.95279	0.924113	0.740022
266888351	O	0.00595784	0.86296	0.698095
266888351	C	0.0514922	0.93692	0.681481
266888351	C	0.0581973	0.940482	0.835833
266888351	C	0.978438	0.881622	0.602941
266888351	C	0.0852253	0.0651187	0.740355
266888351	Fe	0.964416	0.944556	0.817708
266888351	C	0.968528	0.896996	0.613256
266888351	O	0.0838115	0.969327	0.697766
266888351	H	0.0110654	0.976745	0.635317
266888351	H	0.00255536	0.0341997	0.660067
266888351	H	0.0416633	0.0257506	0.769832
266888351	H	0.989583	0.0128889	0.721666
266888351	C	0.00449191	0.864415	0.795651
266888351	O	0.938707	0.850335	0.658509
266888351	H	0.979468	0.855031	0.814646
266888351	H	0.943026	0.91401	0.744912
266888351	O	0.0453504	0.0594702	0.777543
266888351	C	0.95447	0.0861361	0.729812
266888351	H	0.982554	0.916625	0.661334
266888351	C	0.947566	0.904644	0.829139
266888351	C	0.0584264	0.0426998	0.735337
266888351	C	0.0342882	0.995782	0.774089
266888351	O	0.039676	0.0209725	0.702642
266888351	O	0.0373651	0.995124	0.665219
266888351	O	0.0368768	0.970351	0.748939
266888351	C	0.0456123	0.916716	0.674481
266888351	O	0.984821	0.890016	0.806533
266888351	H	0.983821	0.0131575	0.792667
266888351	O	0.962597	0.976171	0.602584
266888351	C	0.0602221	0.08108	0.835045
266888351	H	0.00569595	0.0271856	0.732538
266888351	O	0.0540135	0.937061	0.700234
266888351	O	0.0134837	0.0889686	0.77936
266888351	C	0.00129866	0.959334	0.721541
266888351	H	0.0681608	0.913576	0.652427
266888351	Fe	0.978809	0.857817	0.712796
266888351	C	0.968606	0.044396	0.640069
266888351	H	0.982942	0.930699	0.699094
266888351	O	0.0582834	0.854525	0.636227
266888351	O	0.0737312	0.964822	0.729149
266888351	H	0.934654	0.86491	0.823302
266888351	C	0.972567	0.917676	0.607882
266888351	C	0.913849	0.0200927	0.596578
266888351	H	0.892273	0.846641	0.792204
266888351	C	0.891446	0.88161	0.841654
266888351	C	0.021219	0.0919531	0.617551
266888351	F	0.836053	0.845533	0.823391
266888351	C	0.0919741	0.857144	0.682591
266888351	H	0.918499	0.923747	0.841128
266888351	H	0.0940129	0.0331562	0.702024
266888351	O	0.834329	0.930254	0.912281
266888351	C	0.797925	0.927309	0.88885
266888351	C	0.81464	0.937972	0.884326
266888351	O	0.833334	0.0571	0.901557
266888351	O	0.792443	0.0522127	0.863786
266888351	O	0.814614	0.0311475	0.870617
266888351	C	0.799946	0.0404887	0.876677
266888351	O	0.829987	0.0675759	0.860128
266888351	Fe	0.841675	0.0444414	0.872685
266888351	O	0.853242	0.0195456	0.885416
266888351	O	0.869049	0.0563661	0.873265
266888351	C	0.874429	0.0726672	0.881277
266888351	H	0.852115	0.00995198	0.874474
266888351	H	0.86822	0.0228733	0.884273
266888351	O	0.873153	0.954778	0.921595
266888351	Fe	0.849859	0.975621	0.924866
266888351	O	0.828204	0.997567	0.927343
266888351	O	0.830921	0.962376	0.903452
266888351	C	0.827718	0.944004	0.90144
266888351	F	0.862144	0.989486	0.905428
266888351	C	0.820582	0.940207	0.863754
266888351	H	0.915391	0.953998	0.939138
266888351	C	0.804984	0.0250994	0.908298
266888351	C	0.797503	0.0148229	0.924967
266888351	C	0.792483	0.0371654	0.896806
266888351	H	0.820387	0.0229608	0.905407
266888351	C	0.914183	0.0471088	0.912425
266888351	C	0.905404	0.0564794	0.895756
266888351	H	0.911224	0.0527765	0.880881
266888351	O	0.867272	0.928598	0.941596
266888351	O	0.804479	0.931254	0.941675
266888351	Fe	0.835571	0.930334	0.942872
266888351	O	0.833596	0.898623	0.939868
266888351	O	0.835488	0.925834	0.974743
266888351	H	0.84645	0.89491	0.946234
266888351	H	0.822367	0.893101	0.948449
266888351	O	0.902432	0.859241	0.0174654
266888351	C	0.912488	0.872114	0.0270924
266888351	O	0.864436	0.874283	0.0267763
266888351	O	0.850421	0.874982	0.0569917
266888351	C	0.854421	0.883019	0.0399177
266888351	C	0.900347	0.922506	0.00422396
266888351	C	0.900192	0.901776	0.00861699
266888351	H	0.886867	0.892928	0.00365012
266888351	C	0.843706	0.91043	0.0157792
266888351	C	0.848981	0.903651	0.0358242
266888351	C	0.85217	0.917452	0.0511076
266888351	C	0.842269	0.92981	0.0108331
266888351	H	0.857165	0.911015	0.0657616
266888351	H	0.843593	0.89935	0.00335344
266888351	O	0.880475	0.0551935	0.97037
266888351	C	0.877606	0.0655859	0.954978
266888351	Fe	0.870365	0.0606102	0.999258
266888351	O	0.906435	0.0666206	0.0307911
266888351	O	0.857136	0.0343723	0.997684
266888351	O	0.895067	0.0449021	0.00956396
266888351	C	0.904521	0.0490734	0.0254672
266888351	H	0.864421	0.0260168	0.988111
266888351	H	0.859658	0.027159	0.00967793
266888351	O	0.862021	0.064712	0.0280993
266888351	O	0.803276	0.0176621	0.99653
266888351	H	0.807117	0.0190169	0.0109756
266888351	H	0.810427	0.0281253	0.989084
266888351	O	0.823126	0.00122128	0.0838237
266888351	Fe	0.851061	0.99209	0.0748388
266888351	O	0.877057	0.986608	0.0597023
266888351	C	0.894397	0.989333	0.0664444
266888351	O	0.89827	0.982146	0.083545
266888351	O	0.842191	0.966419	0.0645956
266888351	O	0.869823	0.949421	0.0721609
266888351	C	0.853221	0.951913	0.0627698
266888351	F	0.842536	0.00329183	0.0514488
266888351	C	0.878345	0.938667	0.930453
266888351	C	0.810661	0.999701	0.934894
266888351	O	0.804545	0.988764	0.949766
266888351	O	0.804152	0.948842	0.968366
266888351	O	0.83713	0.959671	0.946067
266888351	Fe	0.823963	0.971904	0.968529
266888351	O	0.870373	0.989237	0.945431
266888351	O	0.808874	0.982688	0.994021
266888351	O	0.843075	0.995674	0.969436
266888351	H	0.834918	0.00746535	0.973557
266888351	O	0.842684	0.955983	0.987047
266888351	C	0.839594	0.93722	0.989733
266888351	C	0.903027	0.0145685	0.0396438
266888351	C	0.91337	0.0329835	0.0373896
266888351	C	0.908804	0.00118192	0.054972
266888351	H	0.888342	0.0126694	0.034489
266888351	C	0.786583	0.00243203	0.0660155
266888351	C	0.803712	0.0657138	0.937405
266888351	H	0.805358	0.0504539	0.933519
266888351	C	0.900041	0.914373	0.911926
266888351	C	0.89852	0.931256	0.92468
266888351	C	0.916223	0.94099	0.930106
266888351	C	0.917902	0.909879	0.902714
266888351	H	0.887137	0.905967	0.906969
266888351	C	0.84296	0.943449	0.027625
266888351	C	0.849123	0.937261	0.0474165
266888351	H	0.840365	0.959078	0.0257465
266888351	C	0.904349	0.049344	0.930797
266888351	C	0.887922	0.0626209	0.934039
266888351	H	0.908663	0.0407932	0.943974
266888351	H	0.881299	0.994233	0.936821
266888351	H	0.85381	0.992757	0.978567
266888351	O	0.877103	0.916067	0.977718
266888351	C	0.885805	0.929754	0.988267
266888351	O	0.885777	0.949481	0.9825
266888351	C	0.914621	0.893593	0.0205163
266888351	H	0.877477	0.951155	0.969831
266888351	F	0.784977	0.85663	0.907973
266888351	H	0.8527	0.0543172	0.0320087
266888351	H	0.835429	0.945228	0.861062
266888351	H	0.799999	0.970874	0.997807
266888351	O	0.843137	0.0734624	0.993033
266888351	H	0.818853	0.982079	0.00496621
266888351	C	0.795187	0.942801	0.953076
266888351	H	0.794305	0.923585	0.903983
266888351	C	0.787915	0.0728366	0.949614
266888351	C	0.785484	0.920381	0.874349
266888351	H	0.799837	0.00183257	0.056365
266888351	C	0.888679	0.0693845	0.897488
266888351	C	0.827843	0.0747347	0.908044
266888351	C	0.880382	0.0720851	0.916655
266888351	O	0.782164	0.0524423	0.00903793
266888351	C	0.818266	0.0785919	0.928595
266888351	O	0.782162	0.996632	0.884197
266888351	H	0.788756	0.996806	0.87138
266888351	H	0.784273	0.983429	0.888981
266888351	C	0.789618	0.99568	0.0857223
266888351	Fe	0.866941	0.857411	0.0740838
266888351	O	0.773351	0.891129	0.888182
266888351	O	0.783351	0.0438504	0.969732
266888351	O	0.867182	0.0815917	0.957933
266888351	Fe	0.774998	0.0272062	0.994953
266888351	C	0.773967	0.0569258	0.959548
266888351	H	0.804305	0.0781902	0.99054
266888351	C	0.789917	0.923292	0.854101
266888351	C	0.774053	0.0695036	0.0124913
266888351	O	0.882055	0.0871793	0.999897
266888351	C	0.773796	0.0430765	0.903667
266888351	C	0.776768	0.017019	0.927854
266888351	C	0.919481	0.892652	0.889635
266888351	O	0.904374	0.881394	0.886311
266888351	H	0.867162	0.0815736	0.917136
266888351	H	0.84826	0.88184	0.850736
266888351	C	0.786665	0.0852834	0.0166991
266888351	C	0.775317	0.950713	0.948787
266888351	O	0.92017	0.0840104	0.992472
266888351	O	0.866086	0.0890921	0.876515
266888351	C	0.768995	0.0101111	0.0582649
266888351	C	0.916019	0.934978	0.0117757
266888351	H	0.917921	0.950307	0.00797881
266888351	C	0.768998	0.907553	0.879301
266888351	C	0.76776	0.0207434	0.0384675
266888351	C	0.807733	0.932477	0.848826
266888351	O	0.770487	0.012554	0.0220587
266888351	H	0.765442	0.0530913	0.894766
266888351	C	0.803376	0.0859351	0.00555089
266888351	O	0.92033	0.867646	0.0435797
266888351	O	0.912883	0.861998	0.0859406
266888351	O	0.882599	0.883239	0.0826037
266888351	H	0.769934	0.00601635	0.936247
266888351	H	0.773382	0.942556	0.918403
266888351	H	0.775505	0.9671	0.97637
266888351	O	0.766253	0.00077947	0.982364
266888351	O	0.860999	0.0181888	0.0863692
266888351	H	0.921969	0.9434	0.974233
266888351	C	0.767321	0.964162	0.963103
266888351	O	0.832788	0.857328	0.935548
266888351	O	0.828709	0.0902179	0.897153
266888351	C	0.765983	0.949562	0.92995
266888351	H	0.0155525	0.885616	0.849808
266888351	C	0.0253477	0.00892211	0.0906179
266888351	C	0.837768	0.0908453	0.999505
266888351	C	0.764556	0.0314937	0.917249
266888351	O	0.970981	0.945123	0.847342
266888351	H	0.877337	0.877473	0.84488
266888351	O	0.967591	0.923261	0.0187103
266888351	H	0.864208	0.861106	0.935445
266888351	O	0.0572592	0.019967	0.0654576
266888351	C	0.790071	0.0925971	0.957711
266888351	Fe	0.904931	0.0939142	0.0155079
266888351	H	0.78271	0.872844	0.0839834
266888351	C	0.927113	0.00363189	0.0633559
266888351	H	0.922489	0.872847	0.0859239
266888351	C	0.77072	0.0912255	0.862323
266888351	H	0.0926845	0.885409	0.915247
266888351	H	0.90534	0.937543	0.0845612
266888351	C	0.974974	0.0272435	0.00627717
266888351	C	0.919748	0.093835	0.975693
266888351	H	0.833638	0.861641	0.0908851
266888351	C	0.787576	0.0901774	0.0367337
266888351	O	0.0942847	0.857328	0.944469
266888351	O	0.764878	0.854573	0.0235708
266888351	C	0.810231	0.990812	0.092537
266888351	C	0.973147	0.0928533	0.853095
266888351	O	0.773427	0.851431	0.867956
266888351	O	0.885094	0.849995	0.0528108
266888351	C	0.979746	0.846065	0.896659
266888351	Fe	0.875162	0.846184	0.0258205
266888351	H	0.763459	0.884041	0.0931801
266888351	H	0.88583	0.891636	0.071302
266888351	H	0.767008	0.978932	0.849937
266888351	C	0.932696	0.925411	0.0203225
266888351	C	0.952911	0.938658	0.935891
266888351	H	0.0330658	0.0808145	0.934927
266888351	O	0.7623	0.0385291	0.0386012
266888351	C	0.0166366	0.98205	0.964734
266888351	C	0.761365	0.0740054	0.854601
266888351	O	0.972477	0.927172	0.976265
266888351	H	0.0212956	0.0217269	0.081639
266888351	O	0.991563	0.0822641	0.896212
266888351	C	0.97103	0.0781473	0.964373
266888351	O	0.0842129	0.96476	0.0307536
266888351	H	0.0201938	0.931484	0.878604
266888351	O	0.864367	0.849502	0.943914
266888351	H	0.939726	0.0886563	0.03093
266888351	C	0.989277	0.0618787	0.00759175
266888351	O	0.0538156	0.988993	0.052312
266888351	O	0.957272	0.0361721	0.000217711
266888351	H	0.93719	0.051677	0.0503102
266888351	O	0.936841	0.88816	0.880369
266888351	H	0.965429	0.993393	0.946688
266888351	C	0.0858429	0.952548	0.857147
266888351	H	0.924775	0.0925702	0.047077
266888351	C	0.844222	0.847852	0.947174
266888351	O	0.982959	0.969698	0.977951
266888351	Fe	0.835759	0.0945584	0.86783
266888351	O	0.0670296	0.00935641	0.877954
266888351	F	0.961611	0.0411505	0.857344
266888351	C	0.930569	0.0365343	0.0494277
266888351	O	0.962228	0.00723511	0.950835
266888351	H	0.0651986	0.977998	0.0944235
266888351	H	0.0407924	0.966739	0.0195131
266888351	C	0.0516986	0.890561	0.0469155
266888351	C	0.950284	0.0766256	0.966622
266888351	Fe	0.0798725	0.985128	0.890989
266888351	O	0.0914184	0.919917	0.903867
266888351	C	0.992661	0.949457	0.87544
266888351	O	0.0183653	0.0426562	0.934783
266888351	C	0.0135066	0.026026	0.942512
266888351	C	0.984785	0.938211	0.859418
266888351	H	0.0477073	0.914724	0.971784
266888351	H	0.985785	0.877387	0.92205
266888351	C	0.937037	0.0219982	0.0627896
266888351	C	0.0102397	0.978331	0.899183
266888351	Fe	0.081128	0.944895	0.919762
266888351	Fe	0.972294	0.042005	0.883011
266888351	Fe	0.973122	0.0261466	0.929428
266888351	Fe	0.991545	0.925661	0.954432
266888351	H	0.0120584	0.0868443	0.849857
266888351	H	0.995127	0.885552	0.860277
266888351	C	0.0149033	0.00189579	0.969891
266888351	O	0.990847	0.0717772	0.0866842
266888351	C	0.0259766	0.0153958	0.957405
266888351	O	0.0627624	0.863905	0.975017
266888351	C	0.00501311	0.0749896	0.013188
266888351	C	0.084429	0.0832687	0.859391
266888351	O	0.0620374	0.874809	0.0508201
266888351	C	0.0157528	0.919036	0.993192
266888351	O	0.0699977	0.966535	0.936203
266888351	O	0.0135202	0.923849	0.975655
266888351	H	0.000561536	0.0618194	0.0810503
266888351	O	0.998178	0.954746	0.952239
266888351	O	0.0271224	0.0828056	0.921696
266888351	H	0.979207	0.886634	0.0306393
266888351	O	0.932252	0.933323	0.977042
266888351	C	0.952863	0.934509	0.017233
266888351	C	0.0108474	0.0332526	0.0124633
266888351	C	0.979452	0.065081	0.949707
266888351	C	0.0685972	0.881797	0.974412
266888351	O	0.999401	0.0154582	0.936006
266888351	Fe	0.0692854	0.992318	0.025214
266888351	C	0.935329	0.918624	0.910359
266888351	C	0.981973	0.862742	0.949605
266888351	C	0.0208222	0.960431	0.895026
266888351	F	0.0724541	0.928065	0.939134
266888351	H	0.973747	0.0776299	0.849801
266888351	H	0.0282601	0.918737	0.032113
266888351	O	0.960165	0.0423306	0.080178
266888351	H	0.0180189	0.990066	0.907729
266888351	C	0.98052	0.000728334	0.893861
266888351	H	0.975049	0.0686658	0.00542431
266888351	C	0.930608	0.905715	0.026225
266888351	O	0.967799	0.926605	0.934792
266888351	C	0.0270593	0.0453847	0.0154686
266888351	H	0.0596121	0.0592086	0.87976
266888351	O	0.943598	0.0341457	0.894219
266888351	O	0.943433	0.896206	0.990126
266888351	H	0.947207	0.00772314	0.948232
266888351	O	0.0727423	0.99551	0.920152
266888351	C	0.997823	0.968792	0.964839
266888351	C	0.0430018	0.959694	0.899051
266888351	C	0.0120779	0.945367	0.884185
266888351	C	0.067062	0.0726147	0.852259
266888351	O	0.982647	0.0137794	0.880586
266888351	C	0.0608806	0.894756	0.990446
266888351	C	0.982263	0.966781	0.880757
266888351	O	0.962442	0.0690349	0.887319
266888351	O	0.980985	0.882453	0.977624
266888351	H	0.0122632	0.0184953	0.0114732
266888351	O	0.999069	0.0534853	0.869234
266888351	O	0.945095	0.0373759	0.92674
266888351	O	0.0396885	0.898392	0.0612586
266888351	H	0.0545933	0.0222454	0.943405
266888351	O	0.0119584	0.923246	0.930521
266888351	C	0.991943	0.0408825	0.00927849
266888351	O	0.0524741	0.94441	0.906672
266888351	H	0.940266	0.900049	0.0383752
266888351	C	0.990913	0.981552	0.891625
266888351	C	0.0357038	0.918115	0.000698798
266888351	H	0.942999	0.0628078	0.968844
266888351	Fe	0.973515	0.903978	0.996786
266888351	C	0.983608	0.863052	0.929238
266888351	H	0.935839	0.875018	0.873862
266888351	C	0.935324	0.0383327	0.910858
266888351	O	0.0914722	0.961925	0.900168
266888351	C	0.0410712	0.996639	0.0844366
266888351	O	0.974796	0.88157	0.0181509
266888351	C	0.0385576	0.913237	0.0207309
266888351	H	0.98222	0.0755461	0.0757974
266888351	H	0.0410326	0.981216	0.00247995
266888351	C	0.0348122	0.976461	0.954541
266888351	H	0.0554376	0.00314423	0.871627
266888351	H	0.0463277	0.894975	0.0736506
266888351	O	0.96957	0.00319112	0.908776
266888351	C	0.974738	0.0829567	0.886969
266888351	O	0.989862	0.896409	0.950435
266888351	C	0.0446773	0.0107015	0.950242
266888351	C	0.950931	0.0256116	0.0795213
266888351	O	0.0861359	0.994963	0.999684
266888351	O	0.0791193	0.969565	0.863369
266888351	H	0.96757	0.968821	0.875326
266888351	C	0.046573	0.0351896	0.0204195
266888351	O	0.983475	0.0433029	0.909062
266888351	C	0.0507822	0.897667	0.0258258
266888351	H	0.944112	0.886181	0.978614
266888351	O	0.988708	0.0733443	0.935516
266888351	O	0.977077	0.0468841	0.951814
266888351	C	0.0533634	0.0651246	0.866012
266888351	Fe	0.957232	0.951614	0.97802
266888351	H	0.950272	0.914302	0.903337
266888351	C	0.0658578	0.984866	0.934709
266888351	O	0.976883	0.00845123	0.00786374
266888351	C	0.0170082	0.0566048	0.875609
266888351	H	0.00712851	0.913558	0.921111
266888351	O	0.0882629	0.011185	0.0386689
266888351	O	0.955026	0.950774	0.00844854
266888351	C	0.02729	0.0822364	0.84961
266888351	Fe	0.00442679	0.0617936	0.915011
266888351	O	0.00269023	0.910515	0.00267165
266888351	O	0.0214675	0.0511221	0.893387
266888351	O	0.95339	0.953888	0.947409
266888351	H	0.0614354	0.0167806	0.890246
266888351	H	0.930952	0.992412	0.0741015
266888351	C	0.934142	0.93382	0.924466
266888351	C	0.0323411	0.0667675	0.862658
266888351	H	0.037533	0.0763348	0.0170894
266888351	Fe	0.0794916	0.0356212	0.0509048
266888351	C	0.0514539	0.0019767	0.0660304
266888351	H	0.0697896	0.873525	0.0128873
266888351	F	0.0706137	0.0599295	0.0630278
266888351	H	0.933783	0.924211	0.965802
266888351	F	0.942157	0.973585	0.979455
266888351	O	0.0604393	0.0446078	0.0283273
266888351	H	0.0354846	0.96063	0.950053
266888351	O	0.995401	0.923221	0.854763
266888351	C	0.061331	0.887746	0.0103364
266888351	O	0.0516461	0.973963	0.892452
266888351	O	0.048972	0.0160983	0.0187113
266888351	H	0.00109462	0.00608807	0.974408
266888351	C	0.0504145	0.912037	0.986931
266888351	O	0.0843109	0.88763	0.96488
266888351	H	0.987169	0.874151	0.0163582
266888351	H	0.946151	0.027144	0.00328847
266888351	C	0.0244401	0.0662745	0.0162635
266888351	C	0.0489393	0.991446	0.947672
266888351	C	0.984827	0.881468	0.959877
266888351	O	0.0500672	0.973202	0.0101542
266888351	H	0.0235142	0.915621	0.935368
266888351	H	0.779856	0.852999	0.0226199
266888351	O	0.951503	0.0117482	0.0929709
266888351	H	0.0485091	0.944571	0.847902
266888351	O	0.00169528	0.883144	0.847309
266888351	H	0.778375	0.0814563	0.0467668
266888351	H	0.877747	0.0935957	0.0408726
266888351	H	0.091836	0.926916	0.0191138
266888351	H	0.0937692	0.0650157	0.0343368
266888351	C	0.820499	0.0945227	0.0125312
266888351	C	0.939018	0.0942497	0.965771
266888351	H	0.948729	0.84586	0.056518
266888351	C	0.978482	0.844703	0.959775
266888351	H	0.978258	0.844728	0.976073
266888351	C	0.97991	0.845243	0.918298
266888351	O	0.995964	0.844861	0.886648
