data_C7200F400Fe1200H4772O6386_2021-03-20_18:25:56
#******************************************
#
# CIF file created by Zeo++
# Zeo++ is an open source package to
# analyze microporous materials
#
#*******************************************

_cell_length_a		68.6046   
_cell_length_b		68.6046   
_cell_length_c		68.6046   
_cell_angle_alpha		90   
_cell_angle_beta		90   
_cell_angle_gamma		90   

_symmetry_space_group_name_H-M		'P1'
_symmetry_Int_Tables_number		1
_symmetry_cell_setting		Tetragonal

loop_
_symmetry_equiv_pos_as_xyz
'+x,+y,+z'

loop_
_atom_site_label
_atom_site_type_symbol
_atom_site_fract_x
_atom_site_fract_y
_atom_site_fract_z
0	Fe	0.171925	0.141213	0.236476
0	O	0.169952	0.158124	0.211602
0	C	0.153438	0.162343	0.203034
0	C	0.176416	0.20968	0.151864
0	O	0.171085	0.224268	0.16207
0	O	0.231293	0.227072	0.192864
0	O	0.201022	0.214768	0.189564
0	C	0.218248	0.214581	0.196612
0	Fe	0.188835	0.239568	0.180425
0	O	0.165878	0.237254	0.200956
0	O	0.245482	0.222044	0.153798
0	C	0.254173	0.156063	0.213885
0	O	0.27428	0.168033	0.165949
0	C	0.226182	0.167121	0.234233
0	C	0.238403	0.187044	0.20753
0	C	0.223077	0.199595	0.21143
0	C	0.211524	0.197865	0.228368
0	C	0.238769	0.169621	0.21817
0	H	0.248181	0.190153	0.195143
0	C	0.169895	0.18013	0.172297
0	C	0.147003	0.190714	0.146512
0	C	0.153902	0.169549	0.181542
0	C	0.1372	0.166711	0.171179
0	C	0.166528	0.190653	0.154645
0	H	0.184777	0.181378	0.17878
0	C	0.132641	0.179557	0.156412
0	H	0.201355	0.20989	0.230138
0	O	0.136547	0.16224	0.212237
0	C	0.263671	0.190019	0.135374
0	H	0.253599	0.179547	0.141774
0	O	0.189956	0.211248	0.139855
0	O	0.269357	0.154593	0.224819
0	H	0.142604	0.202069	0.136464
0	Fe	0.204338	0.23843	0.133689
0	C	0.242626	0.217279	0.13641
0	O	0.25382	0.148651	0.196666
0	Fe	0.273747	0.140114	0.176034
0	Fe	0.125594	0.155935	0.239731
0	O	0.228235	0.222854	0.126273
0	O	0.249246	0.132492	0.158252
0	O	0.209987	0.240211	0.161453
0	C	0.257506	0.206718	0.126404
0	O	0.126399	0.127175	0.235305
0	H	0.159706	0.224858	0.198128
0	C	0.212276	0.181457	0.239089
0	C	0.283232	0.187344	0.138289
0	H	0.172135	0.236926	0.213909
0	H	0.125305	0.158137	0.177287
0	H	0.185566	0.144767	0.13443
0	C	0.177338	0.132827	0.127195
0	H	0.246582	0.144785	0.14982
0	O	0.199081	0.12616	0.160883
0	H	0.228659	0.154594	0.243745
0	H	0.254938	0.124349	0.147243
0	C	0.135607	0.121415	0.22096
0	F	0.190846	0.127134	0.226314
0	O	0.154028	0.122808	0.220711
0	C	0.287771	0.174873	0.155567
0	O	0.438715	0.176707	0.163768
0	O	0.383981	0.142402	0.137637
0	O	0.305326	0.170183	0.159224
0	C	0.418315	0.194472	0.1322
0	O	0.414441	0.239028	0.153969
0	O	0.412361	0.198215	0.149363
0	O	0.335091	0.142892	0.204818
0	O	0.392627	0.216693	0.181688
0	H	0.314762	0.192839	0.189608
0	O	0.309623	0.160365	0.22946
0	O	0.345263	0.166668	0.171264
0	H	0.329716	0.184652	0.201991
0	H	0.41593	0.146971	0.173497
0	O	0.430276	0.193641	0.189828
0	C	0.438953	0.125989	0.176518
0	C	0.429296	0.143927	0.181297
0	C	0.29692	0.198369	0.128337
0	O	0.427362	0.237564	0.192949
0	H	0.39146	0.223191	0.194993
0	H	0.352274	0.16984	0.182729
0	C	0.436239	0.17768	0.182436
0	C	0.439023	0.158448	0.191689
0	H	0.383468	0.211999	0.133195
0	Fe	0.421781	0.2168	0.171228
0	H	0.389115	0.202596	0.18486
0	O	0.436814	0.195522	0.127987
0	Fe	0.318971	0.155685	0.182823
0	H	0.349852	0.154881	0.16449
0	O	0.316593	0.181812	0.198228
0	Fe	0.292384	0.137551	0.221383
0	O	0.294582	0.146211	0.193761
0	O	0.291062	0.131326	0.153615
0	O	0.32187	0.13123	0.164804
0	H	0.312017	0.195848	0.132065
0	O	0.447519	0.217337	0.1612
0	C	0.331466	0.126075	0.210828
0	C	0.308944	0.126367	0.152393
0	H	0.308173	0.158516	0.243603
0	H	0.380479	0.144726	0.151196
0	O	0.414298	0.120206	0.154417
0	H	0.37178	0.143301	0.131141
0	O	0.315384	0.121138	0.217201
0	H	0.35337	0.12139	0.180563
0	H	0.349	0.244117	0.15546
0	O	0.315817	0.235189	0.122262
0	Fe	0.236315	0.244858	0.170149
0	H	0.261273	0.259279	0.190734
0	H	0.271444	0.25493	0.170236
0	O	0.255114	0.365676	0.195734
0	O	0.264241	0.248693	0.180504
0	C	0.121515	0.361998	0.214032
0	O	0.179803	0.253309	0.140407
0	O	0.204611	0.251988	0.202028
0	Fe	0.258066	0.327398	0.172409
0	O	0.24558	0.350143	0.159989
0	O	0.271502	0.302792	0.184571
0	O	0.242577	0.328961	0.197028
0	O	0.216937	0.346698	0.18967
0	O	0.236873	0.310934	0.161056
0	C	0.22449	0.332774	0.198565
0	C	0.231419	0.312806	0.143412
0	O	0.178337	0.265395	0.170343
0	C	0.177846	0.268303	0.151682
0	O	0.226621	0.268303	0.185038
0	C	0.213482	0.267439	0.198282
0	O	0.143578	0.29949	0.215799
0	O	0.145845	0.32851	0.148209
0	O	0.152848	0.307554	0.184703
0	C	0.156588	0.303782	0.202577
0	C	0.218969	0.300009	0.209962
0	C	0.186379	0.286037	0.21119
0	C	0.211026	0.318256	0.206977
0	C	0.177494	0.303896	0.209384
0	C	0.190499	0.320709	0.205894
0	C	0.207104	0.283844	0.20883
0	H	0.176823	0.273407	0.209377
0	H	0.183468	0.334781	0.2012
0	H	0.234062	0.296157	0.210151
0	C	0.200484	0.294661	0.149391
0	C	0.212531	0.304832	0.136629
0	C	0.183328	0.28678	0.143044
0	H	0.206722	0.291025	0.163495
0	Fe	0.244776	0.352792	0.13212
0	O	0.278584	0.32346	0.15071
0	O	0.27737	0.344092	0.184422
0	H	0.138236	0.327868	0.135355
0	H	0.156209	0.317915	0.146301
0	O	0.214328	0.355388	0.130158
0	O	0.24367	0.263422	0.148027
0	C	0.236609	0.269031	0.132341
0	O	0.241813	0.323124	0.131875
0	O	0.274014	0.349987	0.132139
0	H	0.274932	0.27366	0.138592
0	Fe	0.127705	0.317261	0.170514
0	O	0.13142	0.342361	0.186032
0	C	0.272771	0.358085	0.195668
0	H	0.151817	0.353847	0.21868
0	H	0.141186	0.267038	0.191004
0	C	0.176454	0.291003	0.124287
0	O	0.128468	0.270719	0.185951
0	O	0.220024	0.262691	0.125579
0	C	0.269741	0.282297	0.12655
0	O	0.12486	0.260337	0.226226
0	O	0.124174	0.291077	0.155154
0	H	0.260065	0.294119	0.186718
0	H	0.134918	0.292998	0.145322
0	C	0.250163	0.28109	0.120224
0	H	0.274805	0.307963	0.197406
0	C	0.285383	0.336944	0.138983
0	H	0.12182	0.25832	0.183739
0	C	0.181503	0.367636	0.132476
0	H	0.137587	0.263685	0.232487
0	C	0.140294	0.362735	0.224288
0	C	0.202403	0.364943	0.140845
0	Fe	0.231528	0.368429	0.175644
0	H	0.338861	0.264625	0.159856
0	H	0.450344	0.34525	0.243752
0	C	0.387896	0.287105	0.12467
0	Fe	0.334161	0.258157	0.123861
0	O	0.337123	0.252272	0.153549
0	C	0.443212	0.246871	0.196968
0	O	0.310057	0.274864	0.128422
0	H	0.442965	0.281368	0.134081
0	Fe	0.366974	0.320322	0.198052
0	H	0.441805	0.324425	0.198946
0	C	0.357773	0.330323	0.15669
0	O	0.344277	0.335447	0.211812
0	Fe	0.386238	0.361274	0.217138
0	O	0.353228	0.280343	0.130071
0	O	0.382639	0.344156	0.195145
0	C	0.441638	0.308779	0.198478
0	Fe	0.396307	0.348875	0.171249
0	C	0.441512	0.268316	0.200521
0	O	0.387393	0.339272	0.237478
0	C	0.42342	0.255321	0.151862
0	C	0.386446	0.321007	0.236943
0	C	0.424922	0.298277	0.192615
0	H	0.307933	0.33934	0.205583
0	C	0.342243	0.33318	0.141052
0	O	0.390271	0.303908	0.186384
0	H	0.410343	0.270572	0.191467
0	H	0.318782	0.323251	0.159999
0	O	0.412312	0.324602	0.176145
0	C	0.342479	0.352748	0.217236
0	F	0.352621	0.297651	0.201446
0	O	0.379653	0.312652	0.223034
0	O	0.375588	0.335621	0.153949
0	O	0.416977	0.362431	0.215691
0	C	0.42418	0.278117	0.195599
0	C	0.323113	0.362558	0.21951
0	C	0.394583	0.272661	0.137731
0	C	0.307147	0.337699	0.133482
0	C	0.306632	0.354028	0.210793
0	H	0.384392	0.264461	0.146156
0	C	0.407862	0.308899	0.183963
0	C	0.414312	0.27111	0.140974
0	C	0.427763	0.283107	0.130332
0	O	0.440485	0.258481	0.157974
0	O	0.352429	0.325219	0.1738
0	H	0.421472	0.304326	0.23408
0	O	0.411421	0.351917	0.144699
0	O	0.356144	0.363604	0.220355
0	C	0.322176	0.330203	0.145443
0	C	0.347821	0.345666	0.125693
0	H	0.405317	0.342536	0.135195
0	C	0.288672	0.364647	0.208624
0	H	0.362623	0.350355	0.122774
0	H	0.40846	0.365853	0.140754
0	C	0.42595	0.368587	0.200467
0	O	0.418763	0.366289	0.183508
0	Fe	0.243517	0.119773	0.367221
0	O	0.120135	0.184957	0.244622
0	H	0.197415	0.121329	0.351915
0	O	0.168785	0.137243	0.366759
0	C	0.181803	0.124598	0.297842
0	C	0.12175	0.131155	0.318686
0	O	0.192858	0.156882	0.247967
0	H	0.124985	0.22181	0.287537
0	C	0.194089	0.17524	0.247712
0	O	0.279617	0.127881	0.312718
0	O	0.15192	0.157529	0.248456
0	O	0.267189	0.128672	0.353537
0	C	0.177847	0.133554	0.278729
0	O	0.244505	0.231747	0.342908
0	C	0.223091	0.197457	0.351465
0	C	0.227998	0.233332	0.351871
0	O	0.181345	0.186888	0.255215
0	Fe	0.159072	0.171886	0.271584
0	O	0.166929	0.188658	0.295989
0	O	0.179359	0.15188	0.27964
0	O	0.139398	0.193283	0.268827
0	H	0.16847	0.202785	0.293409
0	H	0.155276	0.188413	0.304629
0	O	0.154266	0.220741	0.340945
0	H	0.154923	0.216528	0.354585
0	C	0.218078	0.215887	0.358261
0	O	0.256264	0.162076	0.306163
0	H	0.167179	0.227161	0.338783
0	Fe	0.262661	0.145741	0.330467
0	H	0.248207	0.173422	0.309335
0	H	0.232566	0.195222	0.339498
0	O	0.252897	0.229094	0.302622
0	O	0.246669	0.164759	0.346259
0	O	0.140369	0.157604	0.288144
0	H	0.254791	0.216369	0.30984
0	C	0.165987	0.140607	0.348328
0	H	0.269548	0.166497	0.303361
0	O	0.154233	0.156002	0.342752
0	O	0.282372	0.238664	0.328216
0	O	0.237196	0.130928	0.322349
0	C	0.124187	0.149961	0.285427
0	C	0.231616	0.162158	0.356591
0	C	0.219133	0.179835	0.362155
0	H	0.153429	0.165218	0.353996
0	H	0.261453	0.230246	0.290879
0	C	0.123243	0.1933	0.260317
0	Fe	0.135588	0.243835	0.342896
0	O	0.227529	0.145037	0.363215
0	C	0.172158	0.13333	0.313796
0	H	0.163016	0.145024	0.311672
0	C	0.177063	0.130279	0.333186
0	H	0.28491	0.135363	0.301057
0	H	0.136877	0.131383	0.320446
0	O	0.173727	0.124683	0.262236
0	O	0.122073	0.228833	0.364982
0	F	0.385288	0.120129	0.273353
0	C	0.436623	0.120546	0.321783
0	H	0.308526	0.132518	0.331756
0	H	0.287814	0.200192	0.334028
0	C	0.321588	0.189264	0.36678
0	Fe	0.29317	0.12305	0.363151
0	H	0.445996	0.126991	0.260979
0	H	0.452649	0.206851	0.297386
0	O	0.286293	0.164004	0.335121
0	F	0.290312	0.130039	0.246902
0	C	0.293408	0.239545	0.343343
0	H	0.426877	0.129089	0.313014
0	O	0.300911	0.152714	0.363594
0	H	0.438752	0.185074	0.263088
0	C	0.305407	0.221965	0.349307
0	C	0.298039	0.16629	0.349776
0	C	0.306735	0.185704	0.35298
0	H	0.432751	0.165508	0.272165
0	C	0.298953	0.20234	0.344593
0	O	0.437586	0.17826	0.275847
0	C	0.320094	0.224809	0.36343
0	C	0.269201	0.367562	0.365388
0	C	0.262687	0.333399	0.368465
0	H	0.165773	0.248174	0.362155
0	F	0.127965	0.361978	0.306549
0	O	0.155247	0.257702	0.362875
0	O	0.220711	0.249836	0.355483
0	Fe	0.254958	0.250686	0.323101
0	O	0.148478	0.254964	0.318046
0	Fe	0.200031	0.361574	0.317282
0	Fe	0.233944	0.277688	0.357947
0	O	0.222257	0.287361	0.332599
0	O	0.226787	0.260582	0.315312
0	C	0.219116	0.277492	0.317644
0	O	0.219445	0.347376	0.33664
0	O	0.212197	0.348264	0.293914
0	O	0.181844	0.338908	0.320353
0	O	0.159923	0.340159	0.297882
0	C	0.173381	0.330744	0.306001
0	H	0.210051	0.338579	0.344643
0	H	0.222473	0.357499	0.346752
0	Fe	0.12948	0.293537	0.341223
0	O	0.154694	0.284107	0.329739
0	C	0.156002	0.271465	0.316253
0	F	0.138441	0.320047	0.337995
0	C	0.165914	0.295995	0.294328
0	C	0.187123	0.269734	0.303043
0	C	0.17983	0.310736	0.299437
0	C	0.201982	0.284042	0.306141
0	C	0.198036	0.303964	0.304881
0	C	0.168753	0.276115	0.299339
0	H	0.189712	0.254529	0.30832
0	H	0.207272	0.314213	0.311559
0	H	0.151766	0.298886	0.291436
0	H	0.225739	0.352688	0.295662
0	H	0.257112	0.349893	0.342548
0	C	0.261886	0.350441	0.357868
0	O	0.257353	0.27	0.343866
0	C	0.258925	0.315017	0.358849
0	H	0.259247	0.273816	0.293639
0	O	0.268189	0.270321	0.303648
0	O	0.272881	0.308789	0.349062
0	Fe	0.283266	0.280252	0.352363
0	O	0.244219	0.304729	0.363237
0	H	0.151889	0.306364	0.367733
0	H	0.203802	0.299302	0.36517
0	O	0.156569	0.366941	0.334175
0	Fe	0.153228	0.36899	0.303625
0	O	0.143919	0.29433	0.367156
0	O	0.450286	0.359582	0.313564
0	O	0.293433	0.253502	0.355913
0	O	0.389203	0.369452	0.286812
0	H	0.377868	0.361685	0.283975
0	O	0.384914	0.365415	0.326671
0	C	0.353106	0.365162	0.340234
0	C	0.425566	0.29386	0.263843
0	O	0.373076	0.336816	0.337059
0	H	0.37528	0.319093	0.271203
0	C	0.371135	0.355177	0.333921
0	C	0.417578	0.295024	0.282283
0	H	0.351267	0.345437	0.364423
0	Fe	0.405045	0.355836	0.30831
0	O	0.433959	0.342406	0.367436
0	H	0.42642	0.291285	0.294302
0	H	0.420867	0.297106	0.363098
0	O	0.292882	0.281227	0.324479
0	O	0.399061	0.305202	0.319211
0	C	0.388177	0.311086	0.269928
0	H	0.42312	0.355821	0.276462
0	F	0.38476	0.302825	0.355951
0	O	0.424641	0.347431	0.287924
0	C	0.34511	0.358206	0.357271
0	O	0.389232	0.331059	0.304004
0	O	0.401919	0.337117	0.368849
0	H	0.306648	0.277157	0.323576
0	O	0.423667	0.306003	0.3522
0	O	0.417235	0.341238	0.330773
0	H	0.292319	0.294234	0.319472
0	C	0.395523	0.313675	0.303953
0	C	0.396664	0.309727	0.251681
0	C	0.414912	0.301088	0.248366
0	Fe	0.441052	0.351762	0.341228
0	F	0.306847	0.290619	0.359909
0	H	0.426121	0.296364	0.341529
0	C	0.399703	0.304497	0.285546
0	C	0.447653	0.29541	0.261324
0	Fe	0.399807	0.321843	0.343622
0	Fe	0.19427	0.228288	0.441798
0	O	0.204645	0.203631	0.45347
0	Fe	0.225627	0.207692	0.472249
0	O	0.20219	0.218881	0.414922
0	O	0.193672	0.187446	0.417638
0	C	0.200002	0.202235	0.408189
0	O	0.19725	0.167268	0.475294
0	O	0.240604	0.183522	0.464539
0	C	0.255774	0.160284	0.443846
0	C	0.238913	0.171703	0.449846
0	O	0.223419	0.170022	0.439725
0	O	0.241251	0.222765	0.452166
0	C	0.236911	0.240047	0.446517
0	Fe	0.195279	0.178012	0.446756
0	O	0.167124	0.21636	0.435937
0	O	0.166475	0.18543	0.451704
0	H	0.158381	0.173557	0.452779
0	H	0.163846	0.22085	0.422889
0	H	0.16592	0.189544	0.465297
0	C	0.195273	0.236877	0.483315
0	H	0.127988	0.225596	0.401375
0	O	0.212997	0.23198	0.483077
0	O	0.186422	0.150677	0.438447
0	C	0.254432	0.146917	0.4292
0	H	0.177173	0.14559	0.448509
0	H	0.199415	0.143372	0.43975
0	H	0.20883	0.169947	0.389883
0	H	0.240254	0.14441	0.422952
0	C	0.271222	0.140164	0.419248
0	C	0.274488	0.167409	0.448615
0	H	0.275394	0.177697	0.459769
0	C	0.204282	0.200172	0.387072
0	C	0.269074	0.131222	0.399646
0	C	0.210496	0.182179	0.380604
0	O	0.184737	0.236463	0.467715
0	H	0.205047	0.231268	0.38231
0	O	0.252424	0.131204	0.391827
0	C	0.207743	0.217078	0.375187
0	O	0.126205	0.238668	0.434614
0	C	0.270125	0.126236	0.481436
0	H	0.274342	0.238866	0.459925
0	C	0.20403	0.174162	0.490917
0	O	0.284482	0.125329	0.390692
0	O	0.133853	0.242121	0.489137
0	C	0.282447	0.137805	0.493163
0	C	0.252064	0.120313	0.488552
0	O	0.212341	0.190763	0.491532
0	O	0.248535	0.210535	0.491514
0	H	0.260537	0.212935	0.484083
0	C	0.289278	0.148627	0.422594
0	C	0.290423	0.163012	0.436627
0	O	0.437774	0.142667	0.423656
0	O	0.307828	0.232067	0.455911
0	Fe	0.441804	0.140252	0.454068
0	C	0.356156	0.152925	0.472282
0	C	0.346569	0.234479	0.478589
0	C	0.412604	0.20023	0.442966
0	Fe	0.323872	0.205372	0.46081
0	H	0.377656	0.147898	0.450171
0	Fe	0.350022	0.187201	0.42584
0	O	0.323647	0.171902	0.430405
0	C	0.350311	0.170166	0.462587
0	O	0.361214	0.17762	0.450092
0	O	0.361187	0.161956	0.412846
0	C	0.336419	0.210682	0.392694
0	F	0.308351	0.202651	0.4832
0	C	0.383904	0.215125	0.427543
0	O	0.347493	0.216857	0.475618
0	O	0.33886	0.209787	0.437649
0	C	0.437887	0.185937	0.463985
0	O	0.334589	0.178331	0.467126
0	C	0.430631	0.237731	0.4419
0	C	0.437948	0.222807	0.453424
0	O	0.445884	0.13945	0.48139
0	O	0.439589	0.170539	0.453088
0	C	0.402615	0.126154	0.46946
0	C	0.371767	0.142605	0.464356
0	O	0.374225	0.230024	0.433582
0	C	0.404835	0.215357	0.431881
0	H	0.302401	0.145118	0.414368
0	O	0.376298	0.200553	0.41897
0	C	0.429285	0.2042	0.455101
0	C	0.413649	0.233272	0.430831
0	Fe	0.345436	0.235747	0.430922
0	H	0.353428	0.151949	0.420016
0	C	0.382584	0.130907	0.475911
0	O	0.411524	0.137192	0.457668
0	O	0.343324	0.226463	0.400293
0	O	0.303643	0.193543	0.445215
0	H	0.374299	0.16184	0.418096
0	O	0.440682	0.183286	0.482669
0	O	0.338471	0.193947	0.401168
0	C	0.306516	0.176959	0.436684
0	H	0.404605	0.186926	0.443769
0	C	0.349592	0.148766	0.490761
0	H	0.448318	0.224797	0.46398
0	H	0.297397	0.141439	0.4894
0	H	0.449886	0.148965	0.419451
0	H	0.422762	0.238824	0.484996
0	H	0.426273	0.151276	0.423333
0	H	0.327017	0.175813	0.374388
0	C	0.326663	0.208446	0.373506
0	O	0.319219	0.242186	0.427396
0	C	0.306499	0.243058	0.440901
0	H	0.3228	0.239093	0.36968
0	O	0.218758	0.244814	0.444665
0	F	0.119718	0.310506	0.485409
0	C	0.277823	0.366641	0.384413
0	H	0.211368	0.29102	0.383868
0	C	0.271597	0.249296	0.447906
0	C	0.252741	0.253168	0.441281
0	F	0.184081	0.250143	0.430282
0	C	0.250513	0.263922	0.424395
0	O	0.23975	0.353401	0.41126
0	H	0.24895	0.347525	0.42102
0	O	0.136344	0.295808	0.452067
0	C	0.132396	0.292688	0.434172
0	H	0.248481	0.340564	0.479657
0	H	0.227811	0.345388	0.412636
0	O	0.129642	0.274698	0.429854
0	H	0.235615	0.26947	0.420354
0	C	0.265868	0.266204	0.411243
0	C	0.270565	0.332245	0.387093
0	C	0.262159	0.271989	0.391174
0	H	0.272011	0.318637	0.394553
0	C	0.278577	0.349298	0.39536
0	O	0.276684	0.27782	0.38122
0	C	0.223022	0.35832	0.483965
0	O	0.245525	0.268518	0.383304
0	C	0.284466	0.260041	0.417538
0	H	0.175643	0.270473	0.493054
0	C	0.124695	0.306951	0.418539
0	H	0.274877	0.363196	0.459356
0	C	0.238861	0.345637	0.490768
0	H	0.124281	0.332112	0.43801
0	H	0.124598	0.285012	0.397668
0	H	0.151328	0.256297	0.376647
0	O	0.136567	0.275258	0.492283
0	O	0.207267	0.286824	0.370751
0	O	0.232525	0.366909	0.450772
0	H	0.439626	0.368873	0.392196
0	H	0.350733	0.368865	0.49379
0	O	0.361977	0.367118	0.485431
0	C	0.287237	0.252042	0.435929
0	O	0.345454	0.244856	0.462687
0	C	0.429118	0.363739	0.401726
0	H	0.408179	0.245022	0.421337
0	H	0.296673	0.261421	0.408581
0	O	0.343609	0.354912	0.396197
0	C	0.371729	0.292602	0.483658
0	C	0.432777	0.258706	0.447896
0	O	0.307938	0.338498	0.40883
0	O	0.353962	0.262808	0.424698
0	H	0.361658	0.266733	0.436481
0	C	0.36472	0.294374	0.464454
0	O	0.427625	0.340074	0.469517
0	O	0.400477	0.310283	0.481614
0	C	0.292424	0.348136	0.412013
0	O	0.330286	0.321514	0.439409
0	H	0.330749	0.308438	0.397758
0	C	0.403162	0.340936	0.409547
0	O	0.421147	0.264868	0.460619
0	C	0.342117	0.319998	0.452882
0	O	0.442808	0.272438	0.439337
0	C	0.416914	0.348432	0.397038
0	C	0.331595	0.297768	0.475766
0	C	0.345861	0.30132	0.461334
0	C	0.39354	0.29376	0.48617
0	H	0.315815	0.301086	0.472668
0	O	0.349299	0.334668	0.461447
0	Fe	0.434186	0.273576	0.484272
0	O	0.366404	0.338126	0.425758
0	C	0.378625	0.350528	0.433129
0	O	0.342743	0.314462	0.40039
0	H	0.36214	0.263508	0.413341
0	O	0.438419	0.299201	0.474088
0	O	0.332548	0.361337	0.434619
0	H	0.375703	0.298526	0.453831
0	Fe	0.336867	0.338202	0.418236
0	H	0.35054	0.304385	0.407583
0	H	0.393527	0.328787	0.403704
0	C	0.398568	0.351874	0.42575
0	O	0.292573	0.362307	0.424208
0	Fe	0.425922	0.319921	0.490431
0	C	0.417586	0.342399	0.377144
0	C	0.44358	0.344827	0.462277
0	Fe	0.346967	0.36483	0.458821
0	Fe	0.4462	0.303129	0.446401
0	O	0.373092	0.363984	0.444981
0	O	0.405547	0.280417	0.492887
0	O	0.322008	0.365002	0.473814
0	C	0.331573	0.366202	0.388257
0	C	0.33831	0.301593	0.493789
0	H	0.364791	0.353728	0.489082
0	C	0.40997	0.369415	0.429477
0	C	0.247588	0.123119	0.508702
0	H	0.141183	0.128124	0.555879
0	C	0.1614	0.158198	0.618496
0	H	0.246603	0.223516	0.497669
0	O	0.149584	0.131187	0.524777
0	H	0.268787	0.224774	0.612627
0	H	0.277019	0.146215	0.611002
0	C	0.273546	0.125268	0.588668
0	C	0.142829	0.152004	0.613312
0	H	0.256799	0.133197	0.536442
0	C	0.267881	0.134031	0.606111
0	O	0.159445	0.214997	0.561275
0	O	0.185204	0.203542	0.547776
0	C	0.169866	0.212998	0.546146
0	Fe	0.205435	0.219069	0.561045
0	O	0.225092	0.232442	0.575759
0	C	0.239284	0.225658	0.58479
0	O	0.238687	0.207995	0.591052
0	Fe	0.169984	0.211579	0.590599
0	O	0.196252	0.207736	0.584182
0	Fe	0.214099	0.192033	0.60039
0	O	0.2214	0.194665	0.556959
0	O	0.216571	0.171398	0.578502
0	C	0.216201	0.177379	0.560774
0	O	0.142071	0.216686	0.601118
0	O	0.165654	0.181797	0.592082
0	C	0.173649	0.171209	0.605069
0	F	0.216566	0.228247	0.539233
0	C	0.18295	0.227167	0.515843
0	C	0.167945	0.227221	0.529336
0	H	0.192223	0.214794	0.514905
0	H	0.137993	0.156226	0.599647
0	C	0.184033	0.153922	0.513472
0	C	0.1916	0.153801	0.548794
0	C	0.200347	0.164588	0.509869
0	C	0.208508	0.165306	0.545018
0	C	0.21297	0.169835	0.525504
0	C	0.179133	0.148623	0.533332
0	H	0.18742	0.15101	0.564059
0	H	0.22505	0.179174	0.522308
0	H	0.174506	0.151644	0.500543
0	C	0.259564	0.133902	0.52059
0	C	0.160377	0.139018	0.537641
0	C	0.255731	0.240421	0.588821
0	C	0.276366	0.142966	0.512176
0	C	0.268608	0.237891	0.604442
0	O	0.153075	0.138581	0.556942
0	O	0.191191	0.175226	0.611104
0	O	0.277606	0.189742	0.560409
0	H	0.280743	0.203285	0.564785
0	C	0.186573	0.242309	0.502212
0	O	0.173128	0.241296	0.590336
0	H	0.136015	0.203489	0.603437
0	C	0.250425	0.128926	0.615479
0	H	0.270977	0.183703	0.571994
0	H	0.134171	0.221406	0.590078
0	C	0.153512	0.240773	0.526115
0	H	0.139733	0.239949	0.532971
0	H	0.239676	0.169277	0.608251
0	O	0.232041	0.17562	0.618344
0	C	0.375284	0.124956	0.494776
0	H	0.338456	0.158215	0.496187
0	C	0.424199	0.11969	0.550661
0	H	0.441728	0.239099	0.499897
0	C	0.342862	0.23883	0.499951
0	O	0.351203	0.121893	0.566638
0	C	0.334595	0.153922	0.614887
0	O	0.286667	0.149989	0.568765
0	O	0.307022	0.126458	0.578656
0	C	0.424367	0.144395	0.524659
0	O	0.295564	0.164294	0.531167
0	H	0.319794	0.237409	0.55285
0	O	0.439195	0.155148	0.521345
0	C	0.416747	0.1371	0.543958
0	O	0.359489	0.152949	0.53199
0	C	0.290947	0.147266	0.527181
0	C	0.327338	0.237562	0.539312
0	C	0.386392	0.130556	0.564458
0	O	0.316564	0.199742	0.54908
0	C	0.290076	0.134805	0.57859
0	O	0.338301	0.128546	0.528218
0	O	0.297762	0.132527	0.537143
0	C	0.327879	0.181248	0.591777
0	C	0.398153	0.142506	0.551462
0	C	0.346336	0.222303	0.512757
0	O	0.310418	0.180304	0.58592
0	H	0.340545	0.14437	0.604245
0	C	0.36529	0.134176	0.568927
0	O	0.341931	0.185026	0.580195
0	C	0.359502	0.135658	0.5023
0	Fe	0.303446	0.173291	0.558188
0	O	0.417054	0.13539	0.510564
0	H	0.391002	0.154153	0.544045
0	O	0.326186	0.157273	0.555766
0	Fe	0.323492	0.128619	0.553827
0	C	0.331844	0.202093	0.539127
0	C	0.336071	0.220879	0.530607
0	C	0.353321	0.137535	0.522766
0	Fe	0.350674	0.169596	0.555786
0	O	0.361609	0.151049	0.574389
0	H	0.354595	0.209871	0.507898
0	C	0.331229	0.174053	0.611535
0	O	0.342838	0.189103	0.53574
0	F	0.374479	0.182054	0.556128
0	O	0.126565	0.368204	0.584176
0	C	0.119505	0.354825	0.574304
0	O	0.18987	0.24755	0.563539
0	H	0.276803	0.276784	0.498384
0	C	0.140556	0.257376	0.496936
0	H	0.156401	0.26499	0.606918
0	Fe	0.152834	0.351812	0.543918
0	O	0.179611	0.354153	0.531098
0	C	0.211151	0.358015	0.518429
0	O	0.126234	0.349151	0.557712
0	C	0.1747	0.257866	0.502981
0	O	0.273046	0.307557	0.575555
0	O	0.265292	0.288743	0.551363
0	C	0.268579	0.290764	0.569284
0	O	0.272213	0.274809	0.511327
0	O	0.268696	0.316572	0.51391
0	O	0.261255	0.335233	0.539174
0	C	0.258792	0.330093	0.521225
0	C	0.180319	0.253712	0.578559
0	O	0.189329	0.343132	0.575829
0	C	0.178276	0.328574	0.571553
0	O	0.163153	0.329104	0.560966
0	O	0.145199	0.331495	0.523593
0	C	0.163593	0.276537	0.599034
0	C	0.182852	0.291913	0.574006
0	C	0.17961	0.310253	0.582721
0	C	0.171788	0.310907	0.601075
0	C	0.175158	0.274409	0.582566
0	H	0.189496	0.29083	0.559552
0	C	0.155927	0.254662	0.510491
0	C	0.241438	0.339249	0.510962
0	O	0.264094	0.348485	0.578151
0	C	0.226821	0.345421	0.524091
0	C	0.161346	0.294916	0.607676
0	H	0.168763	0.326184	0.609218
0	C	0.268437	0.274151	0.584234
0	H	0.246117	0.260642	0.566356
0	C	0.255265	0.258864	0.579731
0	H	0.227973	0.340643	0.539358
0	H	0.271084	0.353324	0.589684
0	H	0.255233	0.337784	0.582932
0	H	0.152182	0.319841	0.526391
0	H	0.131287	0.330319	0.52285
0	C	0.28043	0.253079	0.611235
0	Fe	0.282071	0.332848	0.560579
0	C	0.281506	0.271114	0.600676
0	C	0.195821	0.362637	0.532725
0	Fe	0.285795	0.29611	0.528842
0	H	0.121445	0.261528	0.607274
0	H	0.276875	0.261482	0.513764
0	H	0.137366	0.364217	0.513994
0	C	0.209012	0.362276	0.4985
0	F	0.410938	0.36698	0.61357
0	C	0.312814	0.360312	0.55048
0	H	0.415856	0.300509	0.554317
0	O	0.445106	0.28127	0.51132
0	O	0.298619	0.315329	0.544935
0	O	0.429548	0.245573	0.496191
0	C	0.314694	0.323739	0.589849
0	O	0.301388	0.273526	0.539439
0	O	0.421745	0.303064	0.514373
0	H	0.347836	0.310578	0.610117
0	O	0.32549	0.346819	0.553234
0	C	0.439125	0.31229	0.573709
0	H	0.297301	0.346659	0.617274
0	O	0.422049	0.331585	0.597097
0	H	0.291689	0.28199	0.606137
0	F	0.352556	0.31814	0.554132
0	O	0.300744	0.334023	0.58341
0	C	0.328931	0.255619	0.529543
0	O	0.307132	0.299797	0.508392
0	F	0.414822	0.339205	0.503988
0	C	0.322675	0.329154	0.609516
0	H	0.363682	0.298019	0.513993
0	O	0.33079	0.286489	0.544654
0	O	0.323471	0.312063	0.57908
0	C	0.435771	0.293302	0.521794
0	H	0.330463	0.267673	0.501057
0	C	0.44364	0.300473	0.540147
0	Fe	0.325886	0.316668	0.549667
0	H	0.441301	0.361001	0.498369
0	C	0.334715	0.255401	0.509261
0	C	0.34072	0.323142	0.616438
0	H	0.441734	0.364416	0.58817
0	O	0.294761	0.357684	0.550279
0	C	0.319829	0.27266	0.538991
0	C	0.427659	0.314538	0.591559
0	O	0.329837	0.319481	0.521393
0	C	0.35818	0.297191	0.498345
0	C	0.431112	0.304327	0.556499
0	O	0.426417	0.299329	0.603015
0	C	0.324285	0.307443	0.508628
0	C	0.275871	0.219357	0.740253
0	O	0.258132	0.219927	0.670167
0	H	0.265806	0.222266	0.72829
0	H	0.254776	0.223631	0.656
0	H	0.258588	0.205078	0.669924
0	O	0.156372	0.162645	0.73833
0	O	0.168196	0.183114	0.716462
0	C	0.159149	0.179829	0.732323
0	Fe	0.18726	0.165936	0.699904
0	O	0.209548	0.152274	0.684312
0	C	0.220933	0.139009	0.68994
0	O	0.208834	0.176719	0.71755
0	O	0.18365	0.142862	0.716626
0	O	0.16414	0.156951	0.682766
0	C	0.164071	0.142227	0.671606
0	F	0.190716	0.186856	0.683135
0	H	0.160524	0.230696	0.645
0	C	0.135939	0.138715	0.645838
0	C	0.167552	0.153824	0.637504
0	C	0.155299	0.143628	0.651126
0	H	0.181629	0.158288	0.640502
0	C	0.243116	0.141672	0.690764
0	H	0.240941	0.162259	0.714822
0	H	0.215385	0.185906	0.708405
0	C	0.192659	0.228249	0.646313
0	O	0.210996	0.23608	0.723468
0	C	0.174395	0.235389	0.651912
0	C	0.243792	0.139463	0.633179
0	C	0.250633	0.154616	0.705043
0	O	0.256072	0.148343	0.644221
0	H	0.223631	0.229386	0.651499
0	C	0.130675	0.140846	0.625953
0	C	0.270838	0.156255	0.708996
0	O	0.173868	0.127974	0.677362
0	C	0.193869	0.216433	0.628691
0	C	0.277198	0.167285	0.725711
0	H	0.125342	0.133578	0.655996
0	C	0.276425	0.129019	0.687297
0	O	0.224712	0.138561	0.638629
0	H	0.2236	0.14701	0.651919
0	C	0.283147	0.143603	0.699736
0	C	0.256472	0.128714	0.682165
0	O	0.282693	0.240346	0.644166
0	C	0.209695	0.235337	0.655856
0	O	0.264382	0.177312	0.734682
0	H	0.215515	0.22253	0.724847
0	O	0.210627	0.212006	0.621588
0	H	0.219252	0.241415	0.713076
0	O	0.178073	0.213293	0.619673
0	O	0.213661	0.122994	0.696614
0	Fe	0.178571	0.143831	0.74447
0	H	0.240702	0.185208	0.625724
0	O	0.159153	0.121543	0.742489
0	O	0.295909	0.166574	0.733245
0	Fe	0.287143	0.228015	0.670685
0	H	0.299508	0.144724	0.70251
0	C	0.357883	0.231278	0.651054
0	C	0.326053	0.144245	0.631247
0	O	0.313791	0.234915	0.671807
0	Fe	0.333131	0.217383	0.684764
0	O	0.288027	0.216136	0.699849
0	H	0.389011	0.204328	0.655309
0	C	0.377848	0.230545	0.641421
0	C	0.419205	0.150131	0.686014
0	C	0.428136	0.20493	0.646792
0	H	0.312365	0.149899	0.660488
0	C	0.315019	0.176364	0.643479
0	O	0.319433	0.193235	0.674643
0	O	0.428557	0.204543	0.66505
0	O	0.317449	0.216521	0.709957
0	F	0.350287	0.201355	0.695934
0	F	0.426109	0.200692	0.70334
0	C	0.300078	0.214901	0.713686
0	H	0.42237	0.143842	0.72364
0	O	0.295249	0.202549	0.654705
0	C	0.417781	0.236227	0.631741
0	O	0.441742	0.197732	0.635633
0	C	0.294785	0.214252	0.735011
0	O	0.351287	0.216848	0.66081
0	Fe	0.44183	0.188156	0.685533
0	O	0.434814	0.140694	0.681693
0	C	0.393106	0.216126	0.645915
0	H	0.38399	0.137102	0.675496
0	O	0.418232	0.168672	0.683771
0	C	0.316755	0.155912	0.646213
0	C	0.309399	0.191106	0.658933
0	O	0.349773	0.239002	0.695956
0	C	0.410323	0.136242	0.717671
0	C	0.412376	0.218212	0.638926
0	C	0.40476	0.141104	0.698677
0	C	0.386835	0.133653	0.690894
0	H	0.433194	0.239586	0.628939
0	C	0.321535	0.18435	0.625854
0	C	0.399346	0.124647	0.729283
0	C	0.327527	0.122503	0.634673
0	H	0.358227	0.239699	0.73383
0	H	0.318819	0.199659	0.623281
0	C	0.374893	0.122088	0.702847
0	C	0.2087	0.252494	0.666825
0	C	0.173519	0.251077	0.665239
0	C	0.190432	0.258531	0.673281
0	O	0.173935	0.349917	0.716509
0	O	0.202471	0.350702	0.735792
0	C	0.26199	0.31054	0.724505
0	C	0.274754	0.285183	0.695879
0	C	0.236691	0.287036	0.73631
0	C	0.25822	0.28109	0.706598
0	C	0.251598	0.293581	0.721084
0	O	0.223733	0.27379	0.732737
0	H	0.251094	0.267697	0.70414
0	O	0.143032	0.313418	0.695416
0	O	0.145869	0.264522	0.649872
0	O	0.154149	0.27635	0.678523
0	C	0.156006	0.263409	0.665377
0	Fe	0.149537	0.303667	0.668056
0	O	0.178718	0.311684	0.675029
0	O	0.144534	0.329934	0.657225
0	O	0.159875	0.295862	0.641694
0	H	0.186855	0.304172	0.666018
0	H	0.178943	0.324977	0.67008
0	C	0.156754	0.293024	0.730622
0	H	0.167889	0.297034	0.720073
0	H	0.189905	0.27164	0.681276
0	H	0.167535	0.347354	0.704704
0	C	0.226596	0.265488	0.66947
0	H	0.256563	0.319864	0.734638
0	H	0.211873	0.345166	0.725959
0	O	0.226153	0.281883	0.678227
0	O	0.278976	0.252614	0.68446
0	O	0.243068	0.260843	0.658446
0	C	0.279638	0.313737	0.716086
0	C	0.137384	0.297513	0.725862
0	C	0.131053	0.305266	0.706518
0	H	0.253259	0.272248	0.66077
0	C	0.130396	0.34082	0.66076
0	C	0.134375	0.360826	0.654225
0	O	0.135319	0.359585	0.732591
0	H	0.139871	0.352764	0.624759
0	O	0.285563	0.342089	0.733669
0	C	0.151327	0.29625	0.625564
0	C	0.284116	0.270435	0.682192
0	C	0.122608	0.291583	0.737826
0	O	0.132424	0.295359	0.624224
0	H	0.134097	0.351676	0.744357
0	C	0.2851	0.301355	0.700768
0	O	0.12352	0.295455	0.662059
0	C	0.143798	0.363018	0.636614
0	H	0.123695	0.367765	0.730734
0	C	0.452146	0.327052	0.738227
0	C	0.451099	0.307596	0.706615
0	C	0.422584	0.365794	0.743097
0	O	0.348938	0.248065	0.650947
0	C	0.384211	0.247991	0.631945
0	C	0.292746	0.328559	0.723564
0	C	0.411603	0.351096	0.671129
0	H	0.436522	0.301879	0.710468
0	H	0.387165	0.282513	0.679274
0	F	0.335494	0.350119	0.69548
0	Fe	0.415293	0.343376	0.625842
0	O	0.409307	0.333333	0.675386
0	H	0.340631	0.292211	0.662331
0	C	0.291548	0.249677	0.631221
0	C	0.341035	0.350528	0.639719
0	C	0.322287	0.356204	0.632569
0	O	0.297656	0.275701	0.670233
0	O	0.309212	0.255617	0.634316
0	H	0.322752	0.294327	0.647014
0	C	0.409577	0.272349	0.636694
0	O	0.428241	0.295279	0.672244
0	Fe	0.322335	0.260678	0.661322
0	C	0.371748	0.33117	0.634552
0	Fe	0.330079	0.351282	0.721912
0	C	0.35094	0.334784	0.630707
0	Fe	0.439558	0.301456	0.628224
0	O	0.387241	0.296531	0.68175
0	C	0.42026	0.363475	0.687152
0	O	0.377156	0.320643	0.648935
0	C	0.415477	0.360216	0.70724
0	C	0.446022	0.301019	0.670752
0	C	0.355258	0.287679	0.718512
0	H	0.39702	0.297404	0.69239
0	H	0.348424	0.35947	0.65031
0	C	0.358806	0.255823	0.73408
0	O	0.335318	0.267309	0.688204
0	O	0.417952	0.317887	0.638293
0	O	0.396655	0.284085	0.643859
0	C	0.355524	0.266804	0.716817
0	O	0.310967	0.328215	0.719447
0	H	0.299477	0.30349	0.694413
0	C	0.404052	0.252434	0.631076
0	Fe	0.403335	0.308361	0.659782
0	O	0.4273	0.275903	0.637811
0	C	0.359191	0.297486	0.736132
0	O	0.334003	0.286559	0.650918
0	O	0.442108	0.349719	0.630234
0	O	0.410695	0.357651	0.653244
0	H	0.403916	0.349858	0.712615
0	C	0.346884	0.257153	0.698638
0	O	0.352008	0.331238	0.726798
0	H	0.351462	0.295663	0.705767
0	H	0.374765	0.258287	0.628397
0	C	0.352845	0.318166	0.740379
0	O	0.384875	0.338192	0.622646
0	C	0.312817	0.343372	0.619835
0	H	0.187483	0.202511	0.744791
0	O	0.20072	0.125459	0.752108
0	H	0.120933	0.147156	0.832859
0	O	0.282138	0.12379	0.778512
0	C	0.120801	0.219299	0.780306
0	C	0.17856	0.140119	0.864294
0	O	0.250303	0.130088	0.770755
0	C	0.158044	0.195353	0.747121
0	H	0.210565	0.161752	0.752118
0	H	0.164099	0.131395	0.775078
0	H	0.129508	0.190517	0.75437
0	C	0.265655	0.129249	0.784307
0	O	0.154423	0.233552	0.85853
0	H	0.160953	0.15237	0.775947
0	O	0.243628	0.230953	0.781191
0	C	0.269903	0.222001	0.759592
0	C	0.251226	0.23231	0.764484
0	O	0.228768	0.230698	0.820903
0	O	0.207523	0.224977	0.762334
0	O	0.198213	0.231745	0.791548
0	C	0.194668	0.224827	0.77521
0	H	0.232656	0.217284	0.815579
0	H	0.239034	0.235271	0.829184
0	O	0.197112	0.16728	0.751147
0	O	0.22068	0.161833	0.85489
0	O	0.211756	0.165205	0.824121
0	C	0.224317	0.160024	0.836803
0	Fe	0.182703	0.167213	0.829444
0	O	0.153147	0.167436	0.832736
0	C	0.14077	0.181809	0.834692
0	O	0.182709	0.141347	0.846027
0	O	0.186159	0.185757	0.851876
0	O	0.182805	0.190832	0.810952
0	O	0.184195	0.221757	0.830312
0	H	0.189284	0.23432	0.835182
0	F	0.178372	0.150967	0.808568
0	C	0.157512	0.222034	0.778242
0	C	0.141566	0.199265	0.757814
0	C	0.175242	0.215514	0.770457
0	C	0.174603	0.20518	0.752728
0	C	0.140226	0.212798	0.77242
0	H	0.157994	0.233505	0.788795
0	C	0.260288	0.15103	0.843738
0	C	0.246021	0.145301	0.811649
0	C	0.263793	0.13729	0.804793
0	C	0.243994	0.152867	0.830651
0	H	0.232193	0.143452	0.802635
0	H	0.192204	0.18607	0.801165
0	H	0.173417	0.22541	0.821202
0	H	0.278565	0.219317	0.789175
0	O	0.14683	0.198449	0.838869
0	C	0.278117	0.143253	0.836812
0	Fe	0.17068	0.209203	0.854093
0	H	0.258844	0.155227	0.858827
0	H	0.195306	0.169939	0.764924
0	O	0.171522	0.142938	0.77319
0	C	0.279363	0.136293	0.817751
0	O	0.243775	0.241629	0.75078
0	C	0.283249	0.216843	0.774512
0	H	0.145828	0.234635	0.847401
0	H	0.256426	0.126438	0.756116
0	H	0.233165	0.191042	0.86908
0	H	0.295568	0.17121	0.748785
0	H	0.323323	0.205737	0.746198
0	H	0.44606	0.152352	0.768458
0	H	0.448559	0.238645	0.764421
0	O	0.29819	0.121687	0.856829
0	H	0.293471	0.130538	0.813212
0	O	0.388277	0.124812	0.807692
0	C	0.407954	0.168291	0.861416
0	H	0.380776	0.186456	0.771543
0	C	0.302711	0.211856	0.769919
0	O	0.3749	0.198678	0.765816
0	H	0.437037	0.219012	0.81246
0	O	0.351999	0.231027	0.810175
0	H	0.326182	0.183889	0.822724
0	C	0.293961	0.139411	0.851802
0	O	0.436635	0.148982	0.801099
0	C	0.395008	0.144995	0.835363
0	O	0.34384	0.225024	0.850165
0	C	0.409402	0.157505	0.843144
0	C	0.400759	0.130207	0.820729
0	C	0.400466	0.237349	0.806564
0	C	0.377788	0.143796	0.845782
0	Fe	0.363673	0.215548	0.789449
0	O	0.392283	0.226981	0.793599
0	H	0.296733	0.206833	0.830382
0	O	0.358573	0.235962	0.769096
0	O	0.337021	0.19332	0.821948
0	H	0.345136	0.189667	0.832973
0	Fe	0.328536	0.221811	0.824905
0	C	0.318025	0.210911	0.785307
0	H	0.385902	0.197129	0.816137
0	O	0.313243	0.220127	0.800274
0	O	0.335546	0.204585	0.781798
0	H	0.423656	0.157427	0.836043
0	H	0.366447	0.133429	0.841367
0	H	0.297466	0.219636	0.848632
0	C	0.438019	0.234447	0.811502
0	O	0.372733	0.193904	0.8104
0	C	0.308606	0.210279	0.749789
0	H	0.38617	0.206818	0.761047
0	O	0.304924	0.21091	0.841266
0	C	0.374855	0.154172	0.864514
0	C	0.353513	0.239525	0.855828
0	O	0.299381	0.153853	0.86266
0	O	0.400154	0.12491	0.764727
0	H	0.44813	0.139651	0.832766
0	O	0.391009	0.244181	0.820752
0	O	0.416951	0.122034	0.822932
0	O	0.440901	0.180785	0.867062
0	C	0.178347	0.368514	0.794287
0	H	0.162246	0.245432	0.85733
0	C	0.160135	0.367548	0.803277
0	H	0.125415	0.261204	0.816725
0	H	0.146761	0.365046	0.794767
0	H	0.206524	0.343847	0.747975
0	O	0.186514	0.25989	0.749185
0	Fe	0.22363	0.247688	0.797491
0	O	0.129118	0.305365	0.80648
0	H	0.268148	0.365037	0.780798
0	C	0.160793	0.283272	0.748268
0	O	0.168984	0.365933	0.760168
0	Fe	0.215003	0.250813	0.74897
0	O	0.236058	0.295576	0.753196
0	O	0.240235	0.293265	0.793698
0	O	0.2479	0.263033	0.803913
0	C	0.271957	0.288492	0.807896
0	C	0.251765	0.281234	0.802149
0	O	0.207364	0.263796	0.816066
0	Fe	0.21612	0.291386	0.776503
0	O	0.218755	0.263402	0.774402
0	C	0.180751	0.277329	0.7522
0	O	0.192499	0.290956	0.758415
0	O	0.19653	0.28882	0.798101
0	C	0.19651	0.279583	0.814242
0	F	0.214486	0.317883	0.778047
0	H	0.267737	0.314494	0.791178
0	C	0.184897	0.285294	0.849158
0	C	0.18172	0.285215	0.828734
0	C	0.16355	0.291889	0.822172
0	H	0.161366	0.291389	0.806545
0	H	0.198696	0.279619	0.855505
0	C	0.145036	0.275862	0.759902
0	H	0.149001	0.266212	0.771993
0	C	0.152517	0.300165	0.854541
0	C	0.148478	0.297609	0.834731
0	C	0.170128	0.292382	0.862131
0	C	0.278076	0.305835	0.799242
0	C	0.130406	0.304283	0.826738
0	O	0.268383	0.36421	0.766374
0	H	0.141674	0.308574	0.863982
0	H	0.281608	0.262156	0.821986
0	C	0.126061	0.281167	0.754973
0	C	0.28592	0.276835	0.816899
0	H	0.250006	0.366028	0.814092
0	F	0.231773	0.369197	0.753309
0	O	0.425394	0.30253	0.7856
0	O	0.337418	0.269501	0.811895
0	H	0.376176	0.353746	0.759117
0	O	0.439299	0.317082	0.74807
0	H	0.444309	0.324827	0.843948
0	C	0.362953	0.264985	0.752098
0	O	0.322281	0.333504	0.788215
0	C	0.320265	0.265921	0.818582
0	C	0.305647	0.281154	0.816398
0	C	0.403169	0.366246	0.829754
0	C	0.421077	0.245104	0.80459
0	O	0.421101	0.325808	0.814422
0	H	0.39279	0.319213	0.843043
0	C	0.440657	0.274775	0.800891
0	Fe	0.341799	0.346825	0.770054
0	O	0.441566	0.362242	0.819686
0	H	0.364043	0.325255	0.79005
0	H	0.410878	0.269943	0.790391
0	Fe	0.42168	0.328021	0.76895
0	O	0.363878	0.359806	0.754561
0	C	0.423106	0.264955	0.798752
0	H	0.356779	0.341338	0.804754
0	F	0.37305	0.279613	0.819348
0	C	0.400497	0.36209	0.864998
0	O	0.316559	0.249615	0.826328
0	O	0.294793	0.332242	0.772362
0	C	0.398213	0.346097	0.827286
0	C	0.311573	0.299156	0.808267
0	O	0.369973	0.261838	0.786278
0	H	0.367648	0.294097	0.766089
0	C	0.304947	0.326822	0.786208
0	O	0.441948	0.342808	0.781728
0	O	0.358709	0.253649	0.845383
0	C	0.395313	0.342603	0.863077
0	H	0.327156	0.30257	0.807345
0	C	0.365292	0.286091	0.752318
0	C	0.364373	0.253957	0.770185
0	C	0.298046	0.311103	0.799204
0	Fe	0.296507	0.357979	0.757391
0	O	0.402533	0.339626	0.791536
0	Fe	0.363383	0.256148	0.815765
0	C	0.395023	0.334454	0.844263
0	O	0.415188	0.349057	0.748012
0	F	0.400868	0.314354	0.7589
0	O	0.346438	0.321633	0.757714
0	C	0.440823	0.295676	0.794484
0	O	0.362486	0.339696	0.791315
0	Fe	0.448149	0.334764	0.80899
0	C	0.406594	0.335718	0.809563
0	O	0.323768	0.353525	0.749551
0	H	0.451327	0.36285	0.829814
0	O	0.236334	0.194362	0.984062
0	O	0.169221	0.144954	0.963456
0	O	0.233824	0.208132	0.945118
0	O	0.264923	0.204278	0.938988
0	C	0.256926	0.173295	0.915707
0	C	0.242548	0.179008	0.928243
0	C	0.276601	0.146822	0.900624
0	C	0.257972	0.154046	0.909605
0	C	0.229531	0.165475	0.935889
0	C	0.247465	0.197892	0.938468
0	C	0.244723	0.140086	0.916903
0	C	0.230737	0.145593	0.929792
0	Fe	0.231426	0.221337	0.971529
0	O	0.258685	0.22845	0.972145
0	F	0.204946	0.214141	0.971951
0	H	0.266834	0.184411	0.909915
0	H	0.219837	0.170033	0.946908
0	H	0.17328	0.151438	0.950693
0	H	0.174921	0.153632	0.973932
0	O	0.183854	0.191382	0.894216
0	C	0.165944	0.197499	0.894807
0	O	0.215259	0.164612	0.896575
0	H	0.172738	0.134339	0.90212
0	C	0.141122	0.221344	0.946193
0	C	0.149024	0.193193	0.926717
0	C	0.151364	0.234437	0.93258
0	C	0.157194	0.205552	0.912539
0	C	0.156759	0.225868	0.91512
0	C	0.138596	0.200802	0.943125
0	H	0.149462	0.177424	0.924625
0	H	0.162454	0.234164	0.903019
0	O	0.208834	0.135305	0.952925
0	Fe	0.274654	0.23174	0.947839
0	H	0.221334	0.152895	0.892294
0	H	0.204363	0.159497	0.90443
0	C	0.217817	0.130792	0.93845
0	O	0.156484	0.198814	0.879431
0	O	0.27669	0.131402	0.89077
0	O	0.181339	0.154317	0.876356
0	H	0.13512	0.229699	0.959336
0	H	0.246078	0.124577	0.913608
0	O	0.126147	0.168802	0.953491
0	C	0.125686	0.187459	0.955377
0	Fe	0.201103	0.17568	0.874187
0	O	0.196614	0.129797	0.991236
0	H	0.248552	0.237944	0.922809
0	H	0.217689	0.163688	0.991301
0	Fe	0.18587	0.119709	0.964341
0	C	0.171484	0.121805	0.873262
0	O	0.192792	0.221145	0.871213
0	O	0.221101	0.198176	0.873876
0	H	0.225242	0.203193	0.887414
0	H	0.188652	0.235112	0.872524
0	C	0.171006	0.120751	0.893513
0	H	0.286749	0.223075	0.913285
0	O	0.29081	0.234322	0.921817
0	O	0.429739	0.122568	0.895748
0	H	0.386494	0.184521	0.983996
0	C	0.404867	0.138863	0.952255
0	O	0.336524	0.139046	0.930084
0	O	0.427517	0.210747	0.983671
0	O	0.319002	0.128686	0.89356
0	H	0.429943	0.170298	0.982915
0	C	0.32879	0.161442	0.983882
0	C	0.335707	0.155625	0.966065
0	H	0.39406	0.204837	0.984587
0	C	0.302528	0.208513	0.97297
0	O	0.291215	0.157631	0.90293
0	O	0.329853	0.166172	0.913917
0	C	0.332827	0.157055	0.930136
0	C	0.397667	0.126621	0.966632
0	O	0.291481	0.209054	0.987179
0	C	0.332068	0.167609	0.949195
0	H	0.343265	0.141324	0.965207
0	O	0.397697	0.191365	0.989179
0	C	0.366833	0.202516	0.916815
0	O	0.43856	0.178258	0.94201
0	C	0.416751	0.155447	0.957564
0	H	0.405843	0.133852	0.937475
0	C	0.364493	0.221666	0.90676
0	O	0.359678	0.137	0.890928
0	H	0.423239	0.224125	0.979741
0	C	0.429879	0.162293	0.941998
0	O	0.363386	0.187026	0.907144
0	C	0.359528	0.221893	0.886969
0	O	0.37212	0.20191	0.936297
0	O	0.433587	0.149719	0.92924
0	H	0.38767	0.171718	0.886416
0	H	0.356187	0.208854	0.879251
0	C	0.418859	0.160187	0.977497
0	Fe	0.3159	0.157504	0.88801
0	C	0.316115	0.191723	0.970864
0	C	0.397478	0.132802	0.985705
0	C	0.317789	0.178663	0.98641
0	O	0.300878	0.220219	0.958886
0	C	0.322155	0.185866	0.951993
0	H	0.373197	0.186588	0.939489
0	H	0.317737	0.193348	0.939157
0	O	0.424264	0.163426	0.889693
0	C	0.42522	0.171418	0.873272
0	C	0.357344	0.14888	0.876438
0	O	0.311511	0.187698	0.881682
0	C	0.359893	0.240002	0.876491
0	Fe	0.445733	0.148062	0.900585
0	C	0.408246	0.148953	0.991772
0	C	0.369898	0.239593	0.915139
0	H	0.371949	0.240255	0.930219
0	H	0.302805	0.19306	0.891805
0	C	0.390124	0.165697	0.871567
0	H	0.30438	0.232096	0.926086
0	H	0.32441	0.194808	0.880488
0	O	0.341323	0.157695	0.873436
0	H	0.417629	0.122439	0.90406
0	H	0.211172	0.246116	0.953547
0	O	0.225078	0.248382	0.957995
0	Fe	0.268926	0.364536	0.978872
0	O	0.252475	0.246497	0.93344
0	H	0.224626	0.268374	0.923327
0	H	0.259619	0.257286	0.927093
0	O	0.26497	0.350163	0.951915
0	C	0.272029	0.352292	0.934658
0	O	0.21303	0.30461	0.918691
0	O	0.199118	0.331221	0.907102
0	C	0.21411	0.321509	0.910847
0	Fe	0.17015	0.329369	0.913659
0	O	0.173293	0.260266	0.926494
0	O	0.145294	0.268574	0.941507
0	C	0.156566	0.255587	0.933954
0	O	0.166471	0.311726	0.889231
0	Fe	0.191375	0.284219	0.92263
0	O	0.170738	0.303663	0.928002
0	Fe	0.150554	0.29875	0.947433
0	O	0.172264	0.346338	0.93871
0	O	0.151321	0.328189	0.955991
0	C	0.162303	0.343788	0.95375
0	O	0.170532	0.292507	0.967782
0	O	0.213228	0.263813	0.915678
0	O	0.184642	0.284361	0.892997
0	O	0.198516	0.283331	0.952011
0	C	0.17408	0.295896	0.882516
0	C	0.188503	0.286407	0.967678
0	H	0.217305	0.266439	0.901917
0	F	0.169897	0.351381	0.897832
0	C	0.247077	0.330776	0.919441
0	C	0.261587	0.344749	0.917641
0	C	0.26378	0.355768	0.900116
0	C	0.232793	0.331203	0.905559
0	H	0.243798	0.323301	0.932834
0	C	0.196593	0.282732	0.98759
0	C	0.2149	0.275026	0.989989
0	H	0.224166	0.275118	0.977977
0	O	0.141079	0.332958	0.916874
0	C	0.163052	0.357877	0.971279
0	C	0.250389	0.354751	0.88405
0	C	0.234119	0.34264	0.888268
0	O	0.128537	0.305784	0.927862
0	O	0.1298	0.29452	0.968137
0	C	0.127585	0.320518	0.917001
0	C	0.162704	0.350165	0.989953
0	H	0.221801	0.343965	0.878097
0	H	0.28248	0.300833	0.982687
0	O	0.247743	0.348318	0.991227
0	H	0.161586	0.334118	0.991597
0	H	0.124783	0.34906	0.889446
0	H	0.129426	0.281069	0.973848
0	H	0.250886	0.335047	0.985631
0	H	0.272383	0.369039	0.900211
0	H	0.433342	0.356453	0.897079
0	O	0.286221	0.258308	0.956409
0	O	0.288584	0.344015	0.985666
0	O	0.287808	0.360957	0.931512
0	O	0.289622	0.252697	0.987604
0	H	0.363982	0.271314	0.87756
0	F	0.344142	0.322673	0.904202
0	O	0.352846	0.307955	0.939973
0	O	0.370525	0.291069	0.906343
0	H	0.38956	0.264467	0.96897
0	O	0.438958	0.347279	0.905759
0	H	0.436843	0.248063	0.923251
0	C	0.330007	0.3149	0.977601
0	H	0.331362	0.267243	0.963471
0	Fe	0.397679	0.295252	0.948665
0	Fe	0.368252	0.319205	0.91619
0	C	0.305996	0.281076	0.974899
0	C	0.364878	0.257789	0.885598
0	O	0.425768	0.336119	0.943341
0	C	0.382561	0.360899	0.923427
0	O	0.310867	0.34602	0.96169
0	C	0.293646	0.262626	0.972706
0	C	0.29789	0.29928	0.979956
0	O	0.408059	0.324683	0.888608
0	C	0.425059	0.33083	0.961124
0	C	0.374586	0.275095	0.915387
0	C	0.370508	0.257394	0.905291
0	C	0.434367	0.343485	0.976718
0	O	0.372422	0.302491	0.964918
0	O	0.377552	0.331074	0.890101
0	O	0.398872	0.35595	0.916482
0	C	0.355349	0.30228	0.957423
0	O	0.394374	0.314501	0.928308
0	C	0.393404	0.3302	0.880593
0	C	0.30219	0.336914	0.975875
0	O	0.43317	0.305826	0.914738
0	O	0.422513	0.28468	0.936403
0	O	0.369007	0.348382	0.926505
0	O	0.382602	0.274297	0.932798
0	C	0.309726	0.316469	0.980518
0	O	0.400709	0.274389	0.970381
0	C	0.325644	0.280988	0.968413
0	C	0.434203	0.289762	0.923594
0	O	0.414484	0.315201	0.965182
0	C	0.337616	0.297979	0.969007
0	Fe	0.415556	0.330082	0.916113
0	H	0.399048	0.283173	0.981982
0	H	0.33973	0.327704	0.978423
0	O	0.379178	0.338989	0.980361
0	F	0.32705	0.365228	0.930512
0	C	0.442323	0.362621	0.972513
0	H	0.4419	0.354809	0.917942
0	H	0.355321	0.36676	0.977422
0	H	0.441241	0.369419	0.958297
0	C	0.4505	0.276184	0.91826
0	C	0.44938	0.255764	0.918077
0	H	0.403416	0.368165	0.879429
0	C	0.155963	0.120413	0.10337
0	H	0.14587	0.122361	0.0913948
0	O	0.158927	0.155195	0.0812955
0	O	0.181656	0.166668	0.103106
0	Fe	0.271492	0.229057	0.996371
0	O	0.225631	0.233235	0.997687
0	C	0.169057	0.153852	0.0983686
0	H	0.16508	0.16718	0.0739085
0	C	0.244917	0.190695	0.999901
0	F	0.19703	0.23424	0.107385
0	C	0.227641	0.158545	0.00261157
0	C	0.22648	0.138552	0.0100279
0	C	0.256722	0.143328	0.0277292
0	C	0.256047	0.163684	0.0223921
0	C	0.242449	0.171771	0.00913637
0	O	0.257439	0.203021	0.00667864
0	H	0.266726	0.173051	0.0280264
0	C	0.241028	0.131517	0.0227798
0	C	0.275415	0.135287	0.0354064
0	H	0.264865	0.230518	0.107837
0	C	0.212273	0.123764	5.63519e-05
0	C	0.271055	0.217844	0.115364
0	C	0.167989	0.134841	0.11019
0	H	0.28527	0.216401	0.0293451
0	O	0.409525	0.121776	0.110897
0	H	0.389137	0.125641	0.996612
0	O	0.286168	0.229092	0.0225889
0	H	0.29981	0.229909	0.0172435
0	C	0.291136	0.212995	0.115826
0	O	0.445592	0.194408	0.0592623
0	O	0.327611	0.129225	0.997093
0	H	0.310945	0.182054	0.000222798
0	O	0.290124	0.146731	0.035379
0	O	0.356738	0.128895	0.0263252
0	C	0.388097	0.131765	0.0694496
0	O	0.366328	0.193801	0.0172592
0	C	0.407616	0.186892	0.0981145
0	C	0.408236	0.235751	0.0197406
0	O	0.396014	0.163448	0.0205675
0	O	0.327797	0.153977	0.0182278
0	H	0.372351	0.210835	0.0720272
0	Fe	0.396751	0.192855	0.0188142
0	O	0.424582	0.192708	0.0225134
0	H	0.362679	0.18809	0.030578
0	O	0.411694	0.172386	0.0581195
0	H	0.334025	0.211239	0.0600495
0	C	0.395493	0.192388	0.0821377
0	H	0.378622	0.13942	0.0792022
0	Fe	0.317764	0.140839	0.0453818
0	Fe	0.443242	0.210244	0.0101931
0	Fe	0.435891	0.173076	0.0410229
0	H	0.330616	0.17059	0.0612974
0	C	0.305684	0.227143	0.10959
0	O	0.427152	0.232892	0.0204394
0	C	0.328484	0.147271	0.000647945
0	C	0.400071	0.186249	0.0616398
0	O	0.426146	0.151472	0.0226057
0	O	0.308097	0.130128	0.0726314
0	H	0.315016	0.176111	0.0464764
0	C	0.381274	0.127633	0.0507625
0	O	0.317393	0.167374	0.0578719
0	O	0.349519	0.228095	0.0898309
0	C	0.36054	0.131281	0.0448587
0	O	0.32493	0.2205	0.056454
0	C	0.410101	0.153637	0.0134296
0	O	0.394135	0.196784	0.0482418
0	O	0.306336	0.23121	0.0916296
0	H	0.362329	0.207531	0.0158856
0	C	0.379132	0.204975	0.0847068
0	O	0.346682	0.135479	0.0566739
0	O	0.395887	0.221987	0.0163019
0	C	0.360006	0.227792	0.104647
0	C	0.376038	0.212827	0.103528
0	H	0.312263	0.213632	0.0595132
0	H	0.421005	0.177456	0.0955642
0	Fe	0.328844	0.243567	0.075812
0	F	0.44527	0.15555	0.058635
0	C	0.403172	0.194495	0.117117
0	H	0.291288	0.127012	0.115449
0	C	0.386786	0.206075	0.119085
0	C	0.406222	0.124056	0.0760466
0	O	0.358066	0.239277	0.11902
0	H	0.190616	0.359073	0.103608
0	H	0.250579	0.346944	0.00511206
0	O	0.123951	0.321416	0.0303276
0	C	0.178784	0.362826	0.112311
0	O	0.124774	0.292669	0.0437803
0	C	0.16025	0.362889	0.104327
0	C	0.23293	0.24875	0.00409809
0	O	0.251337	0.250474	0.00545965
0	F	0.142646	0.2674	0.069395
0	Fe	0.146931	0.293188	0.0638229
0	O	0.166259	0.284983	0.0421167
0	C	0.183957	0.290255	0.0393042
0	O	0.191382	0.305	0.0481891
0	O	0.176753	0.338549	0.0307686
0	Fe	0.131055	0.338607	0.0530595
0	O	0.15228	0.320509	0.0583975
0	Fe	0.179773	0.330491	0.0587294
0	O	0.169042	0.293389	0.0841233
0	O	0.208696	0.341252	0.0582426
0	O	0.183527	0.322721	0.0856097
0	C	0.179866	0.306565	0.0926488
0	C	0.245082	0.291325	0.103274
0	C	0.258935	0.303637	0.0931404
0	H	0.231722	0.288229	0.0960066
0	C	0.21005	0.269034	0.0230878
0	C	0.185688	0.28708	0.00460529
0	C	0.220399	0.26578	0.00656947
0	C	0.194358	0.282242	0.022533
0	H	0.171483	0.294614	0.00362824
0	H	0.215332	0.264019	0.0376554
0	O	0.236443	0.312313	0.0665256
0	C	0.253505	0.313663	0.0734693
0	O	0.268163	0.321948	0.0626649
0	H	0.262652	0.325752	0.0475662
0	C	0.27798	0.306146	0.10156
0	H	0.208232	0.355514	0.0559281
0	C	0.164246	0.351267	0.0256357
0	H	0.214122	0.34095	0.0713749
0	F	0.24533	0.355811	0.105624
0	C	0.166286	0.361254	0.00666677
0	C	0.1555	0.357527	0.0832375
0	O	0.170268	0.35735	0.0705177
0	O	0.149249	0.355729	0.0357791
0	O	0.137474	0.353235	0.0778357
0	H	0.212378	0.321379	0.107826
0	O	0.127545	0.300994	0.0854275
0	C	0.187949	0.302184	0.111485
0	C	0.283713	0.293197	0.117079
0	C	0.14346	0.367011	0.115405
0	H	0.128975	0.367337	0.108719
0	C	0.20544	0.310163	0.117827
0	H	0.163076	0.285063	0.118113
0	C	0.448279	0.347294	0.00977189
0	C	0.424822	0.300397	0.0459871
0	O	0.307727	0.258967	0.060141
0	C	0.400993	0.255467	0.0243389
0	O	0.412073	0.349409	0.0738726
0	C	0.35883	0.272057	0.0544803
0	O	0.35323	0.286904	0.0633568
0	C	0.420776	0.296453	0.116532
0	C	0.376443	0.274224	0.0416383
0	O	0.45282	0.299119	0.104168
0	O	0.388674	0.331996	0.011925
0	C	0.366392	0.359028	0.00582417
0	H	0.410657	0.354553	0.06077
0	H	0.305832	0.252664	0.048194
0	H	0.287311	0.316793	0.0955136
0	H	0.396764	0.321806	0.00265326
0	O	0.308295	0.293364	0.0713486
0	H	0.370464	0.246428	0.0274912
0	H	0.43632	0.320462	0.997412
0	C	0.390183	0.288923	0.04548
0	O	0.440768	0.342833	0.043637
0	C	0.313269	0.349424	0.118139
0	H	0.301832	0.357513	0.109978
0	C	0.400796	0.299103	0.114166
0	O	0.432563	0.324502	0.0995743
0	C	0.436421	0.307571	0.105935
0	O	0.352256	0.254954	0.0583133
0	H	0.297457	0.287889	0.0781128
0	H	0.429065	0.269804	0.0218131
0	H	0.303563	0.306583	0.0686978
0	Fe	0.438207	0.333361	0.0720233
0	H	0.386167	0.301848	0.0541797
0	O	0.362002	0.291777	0.101329
0	O	0.421065	0.310544	0.0617805
0	Fe	0.334976	0.292152	0.0868302
0	C	0.38168	0.257611	0.0307799
0	O	0.44183	0.299542	0.0379844
0	C	0.41448	0.270513	0.0268603
0	C	0.332942	0.354974	0.115825
0	F	0.337125	0.31828	0.0819713
0	C	0.408914	0.287061	0.038277
0	C	0.439275	0.335975	0.995138
0	H	0.415448	0.360922	0.0820626
0	O	0.317246	0.299859	0.109817
0	O	0.331814	0.264543	0.095252
0	C	0.378236	0.342486	0.998507
0	H	0.396405	0.30895	0.102525
0	H	0.373883	0.355013	0.0359365
0	C	0.366087	0.287961	0.118516
0	C	0.364858	0.362893	0.0254617
0	C	0.452659	0.34051	0.0291984
0	C	0.304678	0.289757	0.119081
0	F	0.14915	0.412637	0.176343
0	O	0.211949	0.445799	0.155989
0	H	0.198634	0.441313	0.154233
0	H	0.21035	0.453108	0.168909
0	F	0.258567	0.444608	0.225892
0	O	0.246082	0.390361	0.164529
0	C	0.267041	0.42287	0.159783
0	C	0.263597	0.410094	0.143955
0	C	0.251624	0.393253	0.146965
0	O	0.217798	0.388411	0.193895
0	H	0.273826	0.390278	0.215413
0	H	0.259772	0.420141	0.17397
0	O	0.246972	0.381869	0.133016
0	H	0.25299	0.482058	0.183774
0	H	0.227622	0.393263	0.20348
0	H	0.213027	0.399413	0.184956
0	O	0.247514	0.459331	0.137402
0	Fe	0.21786	0.467384	0.134831
0	H	0.161414	0.463301	0.158892
0	C	0.153787	0.476905	0.155466
0	Fe	0.12758	0.415755	0.161136
0	C	0.134053	0.478644	0.160051
0	O	0.145855	0.416334	0.136487
0	O	0.189926	0.475068	0.134405
0	O	0.277314	0.449887	0.191084
0	O	0.276811	0.480262	0.22356
0	O	0.133168	0.444314	0.162897
0	O	0.126111	0.386917	0.161075
0	C	0.274637	0.411653	0.126877
0	H	0.254945	0.466844	0.147271
0	C	0.126338	0.378443	0.145087
0	O	0.223008	0.484688	0.157864
0	C	0.142407	0.376569	0.240163
0	C	0.282064	0.437322	0.158557
0	H	0.179824	0.430128	0.122417
0	C	0.27802	0.491965	0.209046
0	C	0.123458	0.459648	0.163106
0	O	0.207556	0.372	0.156937
0	C	0.183705	0.491856	0.138101
0	C	0.163656	0.492783	0.14595
0	Fe	0.284593	0.451401	0.220735
0	C	0.163966	0.371583	0.143697
0	H	0.164869	0.37553	0.159412
0	H	0.140801	0.490467	0.231033
0	C	0.145079	0.372368	0.134731
0	C	0.288445	0.42594	0.125101
0	C	0.288699	0.448006	0.176118
0	C	0.287792	0.383255	0.216522
0	O	0.290745	0.489768	0.1959
0	C	0.292755	0.438364	0.141338
0	O	0.311679	0.458836	0.216013
0	H	0.363368	0.471706	0.228684
0	H	0.377505	0.398372	0.142946
0	H	0.376012	0.421244	0.199854
0	O	0.432462	0.437046	0.173655
0	C	0.321593	0.382214	0.226396
0	H	0.335174	0.39011	0.230146
0	H	0.426151	0.400903	0.182557
0	O	0.385599	0.384741	0.198032
0	C	0.304345	0.392474	0.224999
0	C	0.373435	0.422244	0.184583
0	C	0.304541	0.414625	0.227191
0	H	0.414144	0.41657	0.145398
0	O	0.34325	0.436524	0.205731
0	C	0.441529	0.383133	0.202514
0	O	0.291561	0.423385	0.218276
0	C	0.360372	0.442118	0.158371
0	C	0.363177	0.438637	0.177731
0	O	0.430153	0.47919	0.182069
0	C	0.413961	0.479584	0.172424
0	C	0.43835	0.401368	0.192893
0	O	0.30552	0.454894	0.17617
0	O	0.412224	0.470639	0.155581
0	Fe	0.332489	0.448295	0.230836
0	O	0.343173	0.464345	0.188527
0	Fe	0.315981	0.475864	0.193492
0	O	0.349151	0.474427	0.227098
0	Fe	0.431102	0.447767	0.145726
0	H	0.349386	0.451917	0.152881
0	C	0.374086	0.41004	0.152429
0	C	0.367473	0.428301	0.145254
0	C	0.34855	0.446496	0.190994
0	O	0.408507	0.429129	0.142119
0	H	0.305256	0.447984	0.141258
0	C	0.376565	0.406621	0.172263
0	C	0.381909	0.387394	0.179883
0	O	0.318695	0.423215	0.235821
0	O	0.387791	0.379677	0.240565
0	C	0.447305	0.435371	0.184294
0	H	0.331041	0.487565	0.161914
0	C	0.397029	0.490783	0.182026
0	H	0.404437	0.427835	0.128064
0	H	0.41488	0.491162	0.208666
0	H	0.308889	0.491507	0.15925
0	O	0.382065	0.373789	0.167379
0	C	0.450855	0.417256	0.195294
0	H	0.387277	0.393483	0.236821
0	C	0.361825	0.427455	0.124165
0	O	0.319453	0.493356	0.168823
0	O	0.449782	0.424933	0.1379
0	H	0.346045	0.481896	0.23945
0	H	0.363378	0.430985	0.237311
0	C	0.124839	0.495763	0.154546
0	C	0.24941	0.495861	0.189352
0	O	0.144085	0.500452	0.22081
0	O	0.170859	0.596389	0.176618
0	O	0.182282	0.597719	0.221076
0	H	0.17546	0.602829	0.165079
0	H	0.155754	0.596014	0.175969
0	O	0.236099	0.512007	0.146167
0	C	0.231324	0.501136	0.1603
0	Fe	0.137149	0.523456	0.238794
0	O	0.163809	0.536873	0.232897
0	C	0.233966	0.527035	0.185343
0	C	0.2612	0.503939	0.204214
0	C	0.243859	0.534849	0.201899
0	C	0.258524	0.523066	0.210649
0	C	0.237285	0.507655	0.179108
0	H	0.224384	0.536041	0.176553
0	H	0.266727	0.529948	0.22145
0	C	0.254468	0.601201	0.183793
0	C	0.263044	0.5908	0.150307
0	C	0.250401	0.605492	0.14286
0	C	0.265727	0.589332	0.170523
0	C	0.239981	0.555362	0.208749
0	O	0.225904	0.56668	0.198928
0	H	0.221768	0.57795	0.208299
0	O	0.24935	0.562142	0.223369
0	H	0.272354	0.581507	0.141149
0	H	0.257156	0.599903	0.199828
0	O	0.194552	0.507632	0.136791
0	C	0.1344	0.510453	0.143541
0	H	0.162518	0.52173	0.135296
0	C	0.154645	0.509907	0.141115
0	C	0.239087	0.613695	0.17668
0	O	0.206668	0.613431	0.189434
0	O	0.216908	0.544396	0.128236
0	C	0.124036	0.525718	0.133343
0	C	0.182438	0.598401	0.240055
0	H	0.168442	0.531704	0.21924
0	H	0.1732	0.53042	0.241306
0	H	0.228609	0.549759	0.135688
0	Fe	0.220632	0.514902	0.12211
0	F	0.283873	0.607439	0.242921
0	C	0.285456	0.581325	0.176223
0	Fe	0.17805	0.618582	0.197131
0	C	0.251904	0.610612	0.121059
0	O	0.133584	0.536692	0.121079
0	C	0.238411	0.616145	0.155861
0	H	0.222068	0.591667	0.24181
0	O	0.125089	0.539388	0.215412
0	H	0.280649	0.534214	0.12773
0	C	0.361382	0.618096	0.120677
0	H	0.448638	0.569499	0.19342
0	H	0.301531	0.615533	0.202262
0	H	0.290324	0.526679	0.189857
0	C	0.402037	0.497256	0.201361
0	H	0.287892	0.522662	0.166427
0	H	0.381113	0.498962	0.157247
0	O	0.289151	0.563142	0.179959
0	O	0.326968	0.498274	0.210034
0	H	0.323799	0.509832	0.202478
0	O	0.297712	0.522744	0.1772
0	Fe	0.418352	0.57057	0.217399
0	C	0.406079	0.527884	0.22019
0	C	0.370467	0.515662	0.181584
0	C	0.357078	0.53039	0.172151
0	O	0.331052	0.570003	0.170798
0	O	0.36424	0.546372	0.166909
0	C	0.367287	0.598185	0.183745
0	O	0.33833	0.591333	0.137833
0	Fe	0.351769	0.569111	0.152473
0	H	0.396455	0.568467	0.186948
0	C	0.421861	0.608924	0.224623
0	C	0.336826	0.561852	0.229158
0	O	0.417023	0.5235	0.234711
0	C	0.355852	0.570843	0.229687
0	C	0.376406	0.521605	0.200009
0	O	0.40718	0.577721	0.189396
0	O	0.32221	0.545613	0.203439
0	H	0.383185	0.60953	0.218881
0	O	0.307635	0.546855	0.146894
0	C	0.393353	0.513825	0.209066
0	O	0.334071	0.612186	0.162762
0	C	0.383671	0.611754	0.188169
0	H	0.370239	0.534623	0.207037
0	C	0.326123	0.561444	0.212061
0	O	0.318154	0.576827	0.207376
0	C	0.381649	0.5003	0.172587
0	H	0.363252	0.571669	0.216557
0	C	0.318512	0.545678	0.13245
0	C	0.33901	0.608455	0.145444
0	O	0.432744	0.595847	0.218749
0	O	0.36779	0.588058	0.168567
0	O	0.336688	0.550124	0.133681
0	F	0.373079	0.568625	0.135781
0	Fe	0.32584	0.593953	0.184462
0	O	0.404963	0.545314	0.213385
0	H	0.416734	0.573015	0.179333
0	O	0.338252	0.526716	0.170167
0	O	0.353343	0.596307	0.196115
0	O	0.392827	0.581107	0.230417
0	O	0.299066	0.593511	0.173189
0	Fe	0.314896	0.54675	0.174904
0	C	0.390405	0.61559	0.207199
0	O	0.444136	0.559106	0.202798
0	O	0.427499	0.564375	0.243707
0	H	0.368634	0.515293	0.238092
0	O	0.41722	0.608754	0.241865
0	H	0.439607	0.548436	0.195083
0	H	0.372893	0.611629	0.127935
0	O	0.315814	0.617977	0.200027
0	H	0.320277	0.615748	0.213002
0	H	0.38805	0.617169	0.157989
0	H	0.123077	0.419861	0.329834
0	C	0.228452	0.416186	0.368817
0	C	0.223378	0.436158	0.366731
0	H	0.206268	0.369677	0.262737
0	C	0.12562	0.388058	0.244623
0	O	0.147361	0.370728	0.273726
0	H	0.136804	0.476016	0.277618
0	H	0.123198	0.464136	0.264193
0	H	0.126275	0.398793	0.256222
0	O	0.129236	0.477686	0.265717
0	H	0.134649	0.382087	0.360053
0	C	0.270036	0.38555	0.352389
0	O	0.210556	0.476227	0.358768
0	O	0.21446	0.471312	0.32643
0	O	0.203275	0.40895	0.303605
0	C	0.213622	0.431809	0.333183
0	C	0.22456	0.403999	0.352838
0	C	0.216701	0.443948	0.34889
0	C	0.216869	0.411749	0.334901
0	C	0.213768	0.401674	0.316429
0	C	0.212546	0.465249	0.34473
0	C	0.151331	0.468168	0.317349
0	C	0.164656	0.48572	0.315564
0	O	0.145763	0.398258	0.309831
0	C	0.151908	0.41391	0.302951
0	C	0.15478	0.450518	0.306717
0	C	0.145182	0.432753	0.310982
0	O	0.164369	0.413997	0.289731
0	O	0.18085	0.482969	0.307067
0	Fe	0.187932	0.396681	0.281869
0	O	0.197694	0.418248	0.263206
0	O	0.215472	0.481843	0.283732
0	O	0.17254	0.385064	0.257799
0	H	0.208223	0.438903	0.320044
0	H	0.165893	0.451272	0.294977
0	H	0.189802	0.4302	0.26582
0	H	0.210575	0.421276	0.267704
0	H	0.227224	0.387911	0.352753
0	H	0.267951	0.398597	0.326523
0	C	0.12958	0.433454	0.325164
0	O	0.263457	0.385101	0.333206
0	H	0.134089	0.480722	0.340758
0	O	0.219152	0.38388	0.31441
0	C	0.136931	0.467889	0.331948
0	H	0.221356	0.388052	0.263056
0	O	0.211473	0.381052	0.271216
0	C	0.155667	0.375964	0.257724
0	O	0.181102	0.375678	0.299987
0	C	0.12566	0.450984	0.336259
0	H	0.202534	0.479853	0.277132
0	O	0.237721	0.49401	0.340118
0	O	0.278088	0.401166	0.358055
0	C	0.163894	0.374868	0.367894
0	H	0.218961	0.468456	0.287411
0	O	0.187687	0.373039	0.341327
0	C	0.169603	0.370533	0.346873
0	H	0.282361	0.450951	0.292559
0	H	0.40073	0.376467	0.246297
0	H	0.360424	0.449598	0.252868
0	Fe	0.317801	0.453216	0.365075
0	O	0.288196	0.452259	0.250473
0	C	0.288892	0.465351	0.292443
0	O	0.355079	0.437275	0.247254
0	C	0.297011	0.473085	0.275968
0	H	0.446842	0.407015	0.353583
0	C	0.432675	0.43499	0.357547
0	C	0.30148	0.460665	0.324868
0	C	0.383428	0.450485	0.342423
0	C	0.403386	0.421281	0.333439
0	O	0.339594	0.462931	0.349635
0	C	0.417484	0.447467	0.351706
0	C	0.402545	0.440393	0.340331
0	C	0.434693	0.416263	0.349511
0	C	0.419473	0.409273	0.338061
0	H	0.390427	0.414031	0.327137
0	H	0.357548	0.45277	0.286591
0	O	0.37434	0.454109	0.326752
0	C	0.302279	0.460665	0.259136
0	O	0.343673	0.481446	0.315306
0	H	0.358701	0.433451	0.296384
0	C	0.292251	0.473639	0.311027
0	C	0.324983	0.386913	0.360865
0	O	0.419477	0.382399	0.31458
0	H	0.354967	0.390033	0.320921
0	C	0.347186	0.383273	0.332677
0	C	0.420603	0.388551	0.332304
0	O	0.349417	0.443804	0.295028
0	Fe	0.344767	0.453367	0.323699
0	O	0.319693	0.459321	0.254389
0	O	0.315289	0.449865	0.318343
0	O	0.299257	0.462575	0.34338
0	C	0.334265	0.395118	0.344506
0	Fe	0.359387	0.480688	0.361207
0	O	0.320506	0.4257	0.351747
0	O	0.347331	0.425309	0.332986
0	O	0.377982	0.457352	0.35893
0	C	0.333978	0.416431	0.342775
0	O	0.427234	0.377929	0.345405
0	H	0.415987	0.461611	0.358866
0	C	0.305188	0.491544	0.2777
0	H	0.383427	0.380532	0.293742
0	C	0.332762	0.369802	0.367791
0	O	0.368111	0.488897	0.335737
0	C	0.356352	0.493495	0.321506
0	C	0.298699	0.493123	0.311607
0	H	0.314227	0.395876	0.368957
0	C	0.213406	0.582636	0.369195
0	H	0.134361	0.55859	0.251453
0	O	0.123177	0.518419	0.281863
0	H	0.265254	0.496278	0.361541
0	H	0.162874	0.501986	0.255349
0	Fe	0.207878	0.496497	0.309833
0	O	0.242485	0.61036	0.290498
0	H	0.155555	0.517394	0.270833
0	O	0.151043	0.507594	0.261475
0	C	0.213774	0.581576	0.251772
0	O	0.172435	0.507299	0.361952
0	C	0.225791	0.56838	0.360799
0	O	0.228528	0.53339	0.355614
0	O	0.198282	0.546713	0.351097
0	C	0.217053	0.548251	0.356002
0	Fe	0.218155	0.504699	0.357439
0	O	0.201254	0.508886	0.334734
0	Fe	0.179239	0.524509	0.337194
0	O	0.183197	0.542371	0.310656
0	C	0.192491	0.538317	0.294655
0	O	0.201539	0.521837	0.292026
0	O	0.161046	0.501793	0.324483
0	O	0.154827	0.541067	0.343103
0	O	0.236681	0.508164	0.312098
0	C	0.246175	0.503236	0.327667
0	O	0.251846	0.568081	0.282927
0	O	0.255599	0.58643	0.257889
0	C	0.245673	0.573614	0.267135
0	C	0.264982	0.600527	0.341666
0	Fe	0.253803	0.588098	0.305552
0	O	0.278359	0.594548	0.295962
0	O	0.227363	0.580461	0.315141
0	O	0.265361	0.564533	0.320886
0	H	0.218108	0.578489	0.304433
0	H	0.221148	0.592078	0.321022
0	C	0.271826	0.506468	0.352885
0	C	0.265561	0.509596	0.333694
0	C	0.273527	0.52416	0.322238
0	H	0.269349	0.526472	0.306955
0	C	0.21694	0.55402	0.273699
0	C	0.197208	0.554514	0.278869
0	C	0.1928	0.581776	0.253167
0	C	0.18478	0.568233	0.268185
0	C	0.225538	0.568684	0.262801
0	H	0.168812	0.567411	0.268808
0	H	0.226146	0.543891	0.281378
0	C	0.245591	0.573145	0.35666
0	C	0.252386	0.592522	0.357552
0	H	0.255999	0.562165	0.353146
0	H	0.14803	0.544723	0.331231
0	H	0.160273	0.553806	0.34779
0	O	0.256341	0.607727	0.327253
0	Fe	0.281644	0.600715	0.268619
0	C	0.283217	0.52125	0.361857
0	C	0.282203	0.557626	0.3235
0	C	0.283497	0.53846	0.331481
0	O	0.284043	0.59839	0.340047
0	C	0.240301	0.606049	0.367315
0	O	0.177049	0.614708	0.249131
0	O	0.131006	0.546458	0.257826
0	O	0.305679	0.616667	0.273437
0	C	0.385405	0.579391	0.247967
0	C	0.304321	0.502427	0.294387
0	C	0.427075	0.541551	0.36091
0	H	0.449354	0.505298	0.300253
0	O	0.340592	0.504301	0.363298
0	O	0.381115	0.615313	0.321222
0	O	0.43985	0.612981	0.364473
0	H	0.358198	0.501313	0.282416
0	H	0.422796	0.618081	0.324405
0	H	0.355607	0.582934	0.277905
0	C	0.363884	0.575346	0.24774
0	C	0.326661	0.55896	0.24616
0	C	0.43833	0.543153	0.309495
0	O	0.374093	0.559097	0.349447
0	O	0.422162	0.607604	0.282678
0	O	0.320571	0.530438	0.310453
0	H	0.296715	0.549071	0.358314
0	H	0.436087	0.576004	0.333747
0	H	0.383748	0.606178	0.309574
0	H	0.303701	0.499218	0.324924
0	O	0.313704	0.53137	0.278065
0	O	0.395385	0.579309	0.263825
0	H	0.31161	0.553364	0.245194
0	C	0.379587	0.560308	0.331122
0	O	0.319134	0.585506	0.290353
0	O	0.447552	0.577097	0.342382
0	C	0.315102	0.576168	0.274711
0	C	0.360229	0.511878	0.312036
0	C	0.351583	0.576208	0.263985
0	H	0.382959	0.55833	0.290236
0	Fe	0.423749	0.585477	0.261724
0	H	0.328724	0.505049	0.354481
0	Fe	0.438977	0.53895	0.25068
0	C	0.427974	0.53737	0.325792
0	Fe	0.394619	0.598142	0.342932
0	C	0.367564	0.526759	0.324492
0	O	0.298363	0.56584	0.320388
0	C	0.374419	0.544483	0.316863
0	O	0.359347	0.519426	0.250614
0	F	0.450365	0.516145	0.255868
0	O	0.368344	0.596326	0.355699
0	O	0.424914	0.536282	0.276993
0	C	0.36236	0.513442	0.291971
0	O	0.429798	0.567338	0.28507
0	C	0.42932	0.549242	0.290358
0	H	0.410233	0.606453	0.291521
0	C	0.437753	0.535899	0.343757
0	H	0.337498	0.591945	0.323958
0	O	0.408467	0.539263	0.361802
0	C	0.332039	0.569607	0.262382
0	O	0.325957	0.593323	0.331929
0	H	0.369104	0.524549	0.340215
0	Fe	0.301568	0.593985	0.313253
0	O	0.385993	0.537993	0.255175
0	C	0.313071	0.52215	0.294188
0	H	0.326632	0.54463	0.305763
0	O	0.408553	0.581419	0.361426
0	H	0.326055	0.606565	0.336709
0	O	0.390172	0.574189	0.325634
0	C	0.375363	0.546539	0.295851
0	C	0.36906	0.530216	0.283449
0	O	0.29793	0.576514	0.267688
0	H	0.412534	0.533923	0.325675
0	C	0.371827	0.529699	0.262315
0	O	0.421895	0.604605	0.329034
0	C	0.290369	0.536495	0.350417
0	H	0.310659	0.496876	0.264205
0	O	0.247428	0.418436	0.398313
0	Fe	0.24289	0.429759	0.424898
0	O	0.225627	0.407728	0.433278
0	O	0.260381	0.453753	0.416503
0	O	0.23833	0.443487	0.450171
0	O	0.220234	0.422925	0.471716
0	H	0.210148	0.432888	0.476499
0	Fe	0.203906	0.411011	0.449482
0	F	0.18266	0.415018	0.464551
0	O	0.18744	0.399533	0.426632
0	O	0.219813	0.444347	0.412754
0	O	0.199451	0.439384	0.437566
0	C	0.171598	0.459402	0.418994
0	C	0.190822	0.463026	0.414349
0	C	0.195212	0.478854	0.401209
0	C	0.157321	0.468272	0.407663
0	C	0.204259	0.448072	0.421806
0	O	0.265166	0.417409	0.437558
0	C	0.264083	0.399789	0.441676
0	H	0.167024	0.449216	0.429395
0	H	0.272956	0.447616	0.414397
0	H	0.262781	0.460855	0.428483
0	O	0.239789	0.467645	0.481036
0	C	0.264983	0.392999	0.463186
0	C	0.263185	0.407234	0.477516
0	H	0.25498	0.419919	0.474151
0	H	0.232432	0.455204	0.445486
0	H	0.221562	0.413479	0.483104
0	C	0.160454	0.483357	0.39496
0	H	0.247859	0.475893	0.472789
0	O	0.260116	0.387924	0.427706
0	O	0.229562	0.39106	0.394555
0	O	0.134585	0.442391	0.411657
0	H	0.210094	0.482751	0.398171
0	C	0.235086	0.40793	0.388608
0	C	0.137753	0.460685	0.408276
0	C	0.188536	0.38416	0.416449
0	Fe	0.231563	0.380586	0.423363
0	H	0.150502	0.391655	0.419726
0	C	0.154143	0.386815	0.405246
0	C	0.139748	0.387407	0.390931
0	O	0.207773	0.383695	0.463314
0	H	0.226243	0.446567	0.378442
0	C	0.274103	0.375764	0.468513
0	C	0.173452	0.380897	0.401574
0	H	0.226507	0.472599	0.481637
0	O	0.125895	0.422508	0.448343
0	O	0.276807	0.480745	0.492697
0	C	0.17825	0.374452	0.383038
0	C	0.179809	0.488862	0.390926
0	H	0.284903	0.378654	0.390364
0	C	0.220663	0.369622	0.464988
0	O	0.202691	0.372764	0.418988
0	O	0.124708	0.472694	0.403794
0	C	0.144652	0.381511	0.371413
0	H	0.193735	0.37056	0.379455
0	H	0.144181	0.481461	0.490128
0	H	0.129456	0.43519	0.455245
0	H	0.197297	0.371984	0.494356
0	H	0.149817	0.491217	0.386938
0	C	0.122654	0.400343	0.394704
0	H	0.283454	0.442603	0.372325
0	H	0.287694	0.489748	0.455916
0	C	0.290051	0.377834	0.481165
0	C	0.342507	0.490552	0.470613
0	O	0.29507	0.44266	0.381011
0	C	0.354122	0.451516	0.415168
0	C	0.352886	0.426288	0.43953
0	H	0.381578	0.463568	0.4071
0	O	0.308549	0.387287	0.455374
0	H	0.312647	0.479508	0.391322
0	Fe	0.314945	0.381058	0.426162
0	H	0.379787	0.420614	0.454152
0	F	0.298973	0.400888	0.418071
0	C	0.435878	0.393755	0.420812
0	O	0.351946	0.473229	0.388609
0	F	0.432158	0.420542	0.472862
0	O	0.335238	0.445012	0.387234
0	O	0.314352	0.480252	0.377164
0	O	0.441157	0.457927	0.457163
0	Fe	0.443421	0.463235	0.412802
0	Fe	0.440588	0.429122	0.447671
0	O	0.44328	0.401264	0.405885
0	O	0.412976	0.433177	0.440373
0	H	0.328335	0.438491	0.42459
0	C	0.343782	0.438493	0.426271
0	C	0.344504	0.406671	0.441536
0	O	0.347497	0.396142	0.457
0	O	0.415222	0.461508	0.42565
0	O	0.336587	0.399922	0.426377
0	C	0.372954	0.430739	0.444742
0	O	0.437177	0.400993	0.438054
0	C	0.307675	0.481744	0.477467
0	C	0.374319	0.454122	0.418321
0	C	0.405021	0.448086	0.434317
0	C	0.328047	0.482785	0.48254
0	C	0.383326	0.44473	0.433593
0	C	0.346217	0.457344	0.39642
0	O	0.432381	0.45162	0.388194
0	C	0.308382	0.37678	0.470435
0	O	0.319742	0.376498	0.39739
0	C	0.441773	0.440219	0.377021
0	H	0.406891	0.379137	0.441304
0	C	0.293904	0.474224	0.491775
0	C	0.30268	0.489855	0.459942
0	C	0.425475	0.375169	0.417698
0	O	0.43687	0.491814	0.401606
0	C	0.362963	0.492737	0.477237
0	H	0.297944	0.428422	0.383567
0	O	0.367738	0.484594	0.493103
0	H	0.422331	0.492399	0.3993
0	O	0.449959	0.437597	0.422731
0	C	0.449982	0.370216	0.488362
0	H	0.300614	0.484613	0.373326
0	H	0.197491	0.579841	0.369566
0	H	0.132741	0.560491	0.458211
0	H	0.256659	0.49691	0.433261
0	H	0.237394	0.507908	0.429028
0	O	0.127943	0.559402	0.471727
0	O	0.193266	0.583924	0.481571
0	O	0.164778	0.577457	0.467373
0	C	0.183126	0.577388	0.466608
0	Fe	0.273628	0.575917	0.428768
0	O	0.247571	0.575269	0.414707
0	C	0.235948	0.562092	0.41972
0	O	0.241613	0.544539	0.420455
0	O	0.259193	0.564022	0.45243
0	C	0.253428	0.545669	0.481254
0	C	0.258997	0.547294	0.460569
0	O	0.264024	0.531247	0.451851
0	O	0.265171	0.602471	0.439679
0	Fe	0.266995	0.52806	0.421955
0	O	0.249982	0.50361	0.422909
0	O	0.26775	0.525289	0.391558
0	H	0.250831	0.514188	0.481051
0	C	0.201441	0.560868	0.409454
0	C	0.209283	0.569666	0.441941
0	C	0.182061	0.561939	0.413204
0	C	0.189684	0.572453	0.446812
0	C	0.176424	0.567134	0.432568
0	C	0.214804	0.565932	0.423382
0	H	0.221233	0.572109	0.452597
0	H	0.256706	0.576017	0.48536
0	C	0.250044	0.527714	0.490096
0	H	0.206506	0.555143	0.395189
0	H	0.160886	0.568817	0.43473
0	C	0.167978	0.556629	0.398601
0	O	0.147821	0.55677	0.403792
0	H	0.13914	0.550979	0.392232
0	Fe	0.142419	0.580494	0.485714
0	F	0.234977	0.499834	0.378535
0	O	0.130951	0.601745	0.467358
0	O	0.199639	0.513589	0.377354
0	C	0.183376	0.505049	0.377049
0	H	0.139879	0.60067	0.456442
0	O	0.173451	0.550345	0.382076
0	H	0.272611	0.613271	0.432954
0	C	0.25351	0.562924	0.4925
0	H	0.251223	0.604567	0.435609
0	O	0.283044	0.551215	0.419394
0	C	0.283591	0.524339	0.382267
0	C	0.220614	0.601681	0.372649
0	C	0.208125	0.618641	0.378697
0	O	0.418365	0.497103	0.477897
0	H	0.448977	0.618918	0.373996
0	H	0.437712	0.500632	0.412748
0	O	0.286803	0.593426	0.406153
0	O	0.290747	0.509039	0.425915
0	C	0.336459	0.499191	0.453011
0	O	0.434238	0.552932	0.373667
0	Fe	0.39109	0.561473	0.374231
0	C	0.346988	0.604881	0.380191
0	F	0.376306	0.542784	0.385438
0	C	0.418207	0.588714	0.471175
0	H	0.392394	0.527263	0.437511
0	O	0.402162	0.518958	0.444048
0	H	0.310574	0.603098	0.470428
0	C	0.315705	0.499447	0.448147
0	Fe	0.398168	0.519754	0.474425
0	H	0.414922	0.591059	0.486687
0	C	0.356563	0.569948	0.478015
0	C	0.419304	0.564065	0.445375
0	C	0.331031	0.593722	0.384529
0	O	0.426181	0.587135	0.397702
0	O	0.299134	0.569825	0.388981
0	O	0.379585	0.544425	0.470452
0	F	0.333101	0.547362	0.396814
0	C	0.330028	0.5811	0.458294
0	C	0.307571	0.51316	0.43358
0	H	0.41997	0.548529	0.44123
0	O	0.321375	0.569952	0.426441
0	O	0.421737	0.536238	0.478071
0	C	0.418236	0.574851	0.409123
0	H	0.421283	0.60974	0.426598
0	H	0.349044	0.558142	0.450151
0	H	0.346979	0.504786	0.442627
0	C	0.419751	0.568911	0.465598
0	C	0.419491	0.55359	0.481888
0	O	0.374042	0.504207	0.468279
0	Fe	0.308946	0.548696	0.408307
0	O	0.4068	0.562255	0.40238
0	C	0.371016	0.554929	0.483075
0	C	0.315524	0.575668	0.442722
0	C	0.312287	0.6016	0.383797
0	O	0.317102	0.528524	0.428869
0	C	0.420874	0.598547	0.437415
0	C	0.418955	0.603294	0.457058
0	C	0.346629	0.569355	0.460702
0	O	0.372987	0.583208	0.384932
0	O	0.298027	0.576716	0.446426
0	C	0.42007	0.578768	0.430807
0	C	0.323688	0.593686	0.472758
0	C	0.297987	0.588001	0.392483
0	O	0.300788	0.527994	0.389286
0	H	0.332705	0.579124	0.390228
0	H	0.398133	0.50546	0.440925
0	H	0.450342	0.513038	0.485578
0	C	0.332771	0.593194	0.491098
0	C	0.363842	0.594384	0.373833
0	F	0.380152	0.496617	0.370776
0	C	0.348345	0.580725	0.493963
0	Fe	0.43616	0.582193	0.369699
0	H	0.404448	0.616659	0.373644
0	C	0.274149	0.407249	0.49487
0	H	0.180116	0.459734	0.617603
0	O	0.124988	0.390361	0.549407
0	H	0.127475	0.417343	0.594037
0	O	0.144578	0.372136	0.524119
0	O	0.265007	0.398524	0.609951
0	O	0.160402	0.37185	0.563018
0	O	0.156582	0.480548	0.500379
0	O	0.265266	0.440242	0.500827
0	C	0.274008	0.425311	0.50717
0	Fe	0.254616	0.466677	0.507251
0	Fe	0.25729	0.480364	0.552963
0	O	0.267755	0.465621	0.531332
0	O	0.232115	0.452756	0.521652
0	C	0.221767	0.461474	0.534081
0	O	0.22893	0.474121	0.545556
0	O	0.257355	0.455958	0.571408
0	O	0.185331	0.403917	0.570817
0	C	0.172606	0.415427	0.562018
0	O	0.151943	0.391729	0.601683
0	C	0.163415	0.442116	0.539937
0	C	0.197312	0.439854	0.55009
0	C	0.167182	0.459231	0.528886
0	C	0.201472	0.45603	0.538124
0	C	0.186676	0.465477	0.527612
0	C	0.1783	0.43281	0.550325
0	H	0.208523	0.433642	0.559216
0	H	0.189751	0.477394	0.518391
0	H	0.247332	0.446547	0.567341
0	H	0.242238	0.466203	0.60633
0	O	0.154505	0.412158	0.563688
0	Fe	0.140339	0.389479	0.574799
0	C	0.152664	0.466178	0.514083
0	O	0.1362	0.457577	0.514161
0	H	0.14832	0.4365	0.539926
0	C	0.163479	0.381557	0.611815
0	F	0.211259	0.375651	0.584032
0	O	0.284537	0.42645	0.522699
0	H	0.163713	0.465259	0.603175
0	O	0.283754	0.488334	0.56327
0	Fe	0.186299	0.373235	0.573887
0	O	0.205079	0.489804	0.61153
0	O	0.242182	0.493481	0.511121
0	O	0.199438	0.373377	0.54688
0	C	0.279623	0.454152	0.61932
0	O	0.175737	0.37181	0.602653
0	H	0.271164	0.38981	0.6002
0	C	0.248534	0.47483	0.617907
0	H	0.25569	0.408864	0.604751
0	O	0.169103	0.469064	0.61618
0	H	0.129879	0.402572	0.542856
0	O	0.120441	0.408337	0.586002
0	H	0.33167	0.478253	0.496997
0	H	0.343944	0.479314	0.614087
0	O	0.451596	0.414584	0.570115
0	H	0.35792	0.439198	0.609857
0	C	0.448365	0.484177	0.597481
0	C	0.421698	0.489574	0.49493
0	C	0.288012	0.391991	0.496918
0	H	0.290508	0.432013	0.560742
0	O	0.289772	0.446312	0.55983
0	H	0.346447	0.372065	0.533019
0	H	0.301363	0.451563	0.567193
0	Fe	0.294053	0.454101	0.531647
0	C	0.313288	0.392911	0.563311
0	H	0.390649	0.419454	0.528616
0	H	0.433887	0.468529	0.525548
0	O	0.326773	0.433485	0.593268
0	C	0.339239	0.383258	0.5418
0	C	0.44388	0.480134	0.522055
0	O	0.373315	0.393641	0.520553
0	C	0.321432	0.378824	0.551045
0	C	0.350241	0.399464	0.546907
0	H	0.36562	0.461357	0.524164
0	O	0.298629	0.417225	0.592387
0	O	0.429598	0.430338	0.535156
0	O	0.408667	0.480495	0.50397
0	H	0.42289	0.417443	0.535571
0	H	0.429854	0.433291	0.521245
0	H	0.330059	0.453474	0.530607
0	H	0.321047	0.435179	0.519434
0	O	0.378102	0.467334	0.530438
0	C	0.368461	0.403648	0.535775
0	C	0.34122	0.412892	0.560222
0	C	0.323198	0.409357	0.568665
0	H	0.388277	0.458273	0.526467
0	C	0.440922	0.490062	0.504199
0	C	0.316102	0.420414	0.585889
0	H	0.299347	0.3904	0.570014
0	H	0.348589	0.425761	0.563572
0	O	0.335485	0.473485	0.604297
0	O	0.299278	0.460617	0.502565
0	O	0.305062	0.48016	0.53987
0	H	0.299506	0.392867	0.507186
0	O	0.321196	0.442266	0.531309
0	O	0.379778	0.419716	0.539693
0	H	0.438838	0.493486	0.562283
0	H	0.324054	0.481824	0.601798
0	H	0.337067	0.490847	0.548107
0	C	0.299849	0.490991	0.553695
0	Fe	0.38599	0.493665	0.515355
0	Fe	0.323681	0.448645	0.617845
0	O	0.295782	0.458307	0.611893
0	O	0.446459	0.478347	0.616426
0	H	0.138329	0.58794	0.617303
0	O	0.120808	0.58306	0.504465
0	H	0.143805	0.494497	0.562313
0	Fe	0.284915	0.615823	0.524214
0	F	0.247822	0.496121	0.573215
0	Fe	0.175524	0.497647	0.616202
0	O	0.142998	0.616226	0.535731
0	O	0.220656	0.5187	0.612577
0	C	0.136943	0.614277	0.575411
0	O	0.169878	0.499279	0.58664
0	O	0.151837	0.558007	0.50298
0	C	0.157105	0.609253	0.545271
0	C	0.153329	0.605911	0.565842
0	Fe	0.183671	0.594573	0.51003
0	O	0.157203	0.600137	0.500354
0	F	0.208283	0.58933	0.519104
0	O	0.193633	0.518376	0.577593
0	O	0.178303	0.566286	0.51883
0	C	0.149688	0.504308	0.552102
0	C	0.161993	0.535315	0.527304
0	C	0.167762	0.513543	0.555933
0	C	0.173764	0.529445	0.543916
0	C	0.178142	0.509559	0.574221
0	C	0.164629	0.553884	0.515766
0	Fe	0.200105	0.537121	0.600957
0	O	0.221966	0.54937	0.582346
0	O	0.180924	0.557223	0.590636
0	O	0.174102	0.604771	0.53793
0	C	0.14202	0.592617	0.602584
0	C	0.157579	0.583297	0.592407
0	C	0.163109	0.590401	0.574036
0	C	0.168562	0.566722	0.600906
0	H	0.174318	0.582908	0.566148
0	H	0.186154	0.538005	0.548787
0	H	0.228938	0.538025	0.577366
0	H	0.215126	0.554703	0.570928
0	O	0.264682	0.573189	0.542073
0	O	0.263684	0.594377	0.516696
0	C	0.249171	0.543402	0.52216
0	C	0.25196	0.562157	0.513367
0	C	0.259638	0.578055	0.524739
0	O	0.257686	0.505315	0.536265
0	C	0.248705	0.507828	0.520516
0	C	0.2479	0.527024	0.51051
0	Fe	0.274099	0.589045	0.564487
0	O	0.253709	0.576238	0.582453
0	H	0.247153	0.542048	0.538018
0	H	0.26171	0.567878	0.591484
0	H	0.247178	0.586852	0.590256
0	C	0.144973	0.524929	0.524227
0	C	0.137916	0.509537	0.5366
0	C	0.131383	0.608175	0.594271
0	O	0.253001	0.608743	0.558148
0	H	0.136448	0.529029	0.511505
0	O	0.283144	0.604646	0.589657
0	C	0.220142	0.500059	0.615674
0	O	0.181141	0.525487	0.616447
0	O	0.168407	0.56535	0.619327
0	C	0.134211	0.519508	0.619024
0	O	0.144721	0.503469	0.618731
0	C	0.344378	0.520867	0.551867
0	F	0.393917	0.565828	0.531624
0	C	0.313413	0.506748	0.559666
0	C	0.417419	0.530592	0.599257
0	C	0.301149	0.602585	0.595359
0	H	0.401839	0.599354	0.596311
0	O	0.350135	0.601321	0.560608
0	H	0.42323	0.607292	0.546003
0	O	0.389862	0.601585	0.604228
0	C	0.411124	0.545311	0.613799
0	C	0.43748	0.603584	0.542292
0	C	0.436859	0.501055	0.591861
0	H	0.336948	0.596585	0.607783
0	H	0.40213	0.54126	0.574673
0	C	0.332912	0.504691	0.553878
0	O	0.406543	0.563238	0.610548
0	C	0.306849	0.525589	0.564297
0	C	0.41251	0.516708	0.544883
0	C	0.310658	0.561392	0.562642
0	O	0.29278	0.602214	0.547868
0	H	0.391113	0.616299	0.607287
0	C	0.419885	0.517258	0.565516
0	H	0.412897	0.579707	0.555305
0	O	0.413893	0.558096	0.499149
0	C	0.338393	0.538934	0.559181
0	H	0.349818	0.603654	0.574673
0	O	0.294362	0.566328	0.570628
0	C	0.321172	0.599337	0.509127
0	Fe	0.32023	0.602118	0.553943
0	O	0.416066	0.531539	0.533442
0	O	0.319544	0.572997	0.550636
0	C	0.433133	0.503646	0.572044
0	H	0.347266	0.551737	0.558026
0	C	0.412204	0.530889	0.57936
0	C	0.306209	0.597884	0.616058
0	O	0.373974	0.554181	0.500658
0	O	0.329187	0.60409	0.525405
0	C	0.360852	0.519959	0.538725
0	H	0.353157	0.579776	0.509378
0	O	0.402716	0.501421	0.539573
0	O	0.418724	0.576678	0.5699
0	C	0.437739	0.578467	0.569083
0	O	0.392008	0.519553	0.502715
0	H	0.353932	0.587716	0.560599
0	O	0.30274	0.599968	0.507125
0	O	0.314471	0.599887	0.583378
0	Fe	0.394279	0.542674	0.517581
0	O	0.373634	0.534211	0.538157
0	C	0.318713	0.541552	0.564185
0	C	0.429461	0.514224	0.60557
0	H	0.291807	0.528828	0.568089
0	O	0.361757	0.505061	0.527627
0	C	0.447348	0.588118	0.552605
0	C	0.446649	0.61313	0.526832
0	O	0.447669	0.571286	0.58251
0	C	0.326382	0.593177	0.619092
0	O	0.158466	0.420279	0.725464
0	Fe	0.186413	0.413674	0.715286
0	O	0.186238	0.389074	0.72979
0	O	0.186776	0.439096	0.700056
0	O	0.215119	0.410017	0.706303
0	C	0.227679	0.396064	0.707391
0	O	0.195582	0.427251	0.739671
0	O	0.17827	0.399831	0.690417
0	C	0.162448	0.390945	0.688
0	H	0.179912	0.449251	0.70886
0	H	0.200091	0.442468	0.700371
0	C	0.262005	0.392671	0.716697
0	C	0.254776	0.407543	0.685321
0	C	0.275449	0.408516	0.682171
0	C	0.248471	0.399895	0.703527
0	H	0.244146	0.411999	0.674236
0	C	0.272596	0.481069	0.642222
0	C	0.164738	0.387712	0.650078
0	C	0.154447	0.385192	0.668623
0	H	0.178695	0.395908	0.650966
0	O	0.152768	0.384984	0.702813
0	C	0.266842	0.470478	0.626052
0	O	0.22346	0.380501	0.715899
0	Fe	0.210006	0.37921	0.741503
0	C	0.157318	0.377743	0.633055
0	H	0.256661	0.385532	0.729955
0	C	0.147571	0.414164	0.73928
0	C	0.28161	0.392959	0.712565
0	O	0.275174	0.437247	0.623903
0	Fe	0.162157	0.374915	0.731087
0	H	0.136718	0.472071	0.636551
0	O	0.122007	0.465788	0.635057
0	C	0.137558	0.373613	0.668121
0	O	0.280648	0.40564	0.648595
0	C	0.285703	0.413297	0.664304
0	C	0.23744	0.49128	0.624992
0	O	0.147998	0.396483	0.743994
0	H	0.151646	0.451545	0.743234
0	H	0.129337	0.36977	0.681307
0	H	0.286566	0.476925	0.649049
0	C	0.288217	0.401969	0.696635
0	O	0.30147	0.423542	0.665812
0	C	0.349341	0.463963	0.690425
0	F	0.336867	0.407881	0.676921
0	C	0.400819	0.477342	0.676516
0	C	0.413668	0.477024	0.692314
0	H	0.303773	0.402716	0.693179
0	C	0.338317	0.488792	0.712617
0	H	0.340367	0.38654	0.729257
0	C	0.368075	0.467841	0.721025
0	H	0.424134	0.464764	0.693835
0	O	0.313979	0.424507	0.629481
0	C	0.398512	0.459791	0.66294
0	H	0.310646	0.487565	0.673299
0	C	0.331901	0.457599	0.658651
0	C	0.35091	0.473284	0.708404
0	O	0.316475	0.38595	0.649838
0	O	0.340229	0.441342	0.657317
0	O	0.382206	0.453724	0.716469
0	C	0.334601	0.468802	0.67757
0	C	0.295708	0.382349	0.724444
0	O	0.351719	0.404956	0.6388
0	O	0.321713	0.463068	0.644296
0	C	0.44145	0.382221	0.716724
0	C	0.321237	0.482917	0.683209
0	O	0.406774	0.443284	0.667184
0	Fe	0.326795	0.415084	0.652685
0	H	0.359458	0.452044	0.688079
0	O	0.387933	0.461403	0.645631
0	C	0.314325	0.376358	0.633952
0	H	0.357297	0.396178	0.648117
0	H	0.39027	0.447931	0.637957
0	C	0.322233	0.492391	0.701253
0	O	0.435295	0.48348	0.73167
0	H	0.392321	0.451632	0.728376
0	Fe	0.290446	0.411324	0.620814
0	C	0.388936	0.493221	0.674258
0	O	0.348269	0.375014	0.724504
0	H	0.347682	0.397704	0.627025
0	C	0.437002	0.374034	0.683177
0	O	0.351861	0.440364	0.622905
0	C	0.413565	0.49273	0.705167
0	H	0.447428	0.393078	0.727494
0	C	0.448538	0.382523	0.697735
0	O	0.307111	0.370354	0.715407
0	C	0.425565	0.370745	0.722137
0	O	0.369853	0.477141	0.73731
0	O	0.294403	0.38272	0.742154
0	O	0.304468	0.383489	0.619631
0	H	0.442694	0.37277	0.668484
0	H	0.352958	0.378583	0.711542
0	H	0.160557	0.618666	0.671536
0	C	0.26233	0.49679	0.650299
0	H	0.24273	0.497862	0.724675
0	O	0.256436	0.497311	0.725514
0	H	0.260142	0.500815	0.739611
0	H	0.276607	0.599558	0.627537
0	O	0.184022	0.495939	0.646973
0	C	0.245031	0.502513	0.640232
0	F	0.173187	0.501251	0.733017
0	C	0.174313	0.607384	0.644838
0	C	0.175755	0.507136	0.658921
0	O	0.161963	0.516146	0.651929
0	O	0.19392	0.545352	0.647378
0	C	0.202227	0.559388	0.639801
0	Fe	0.167334	0.540341	0.635162
0	F	0.15468	0.554862	0.652856
0	O	0.140052	0.605518	0.739671
0	O	0.238393	0.532858	0.713035
0	O	0.238575	0.554666	0.689283
0	C	0.230131	0.540382	0.698551
0	Fe	0.263055	0.568734	0.699139
0	O	0.257128	0.560926	0.728427
0	Fe	0.266952	0.520859	0.709622
0	O	0.277213	0.544627	0.69664
0	O	0.271121	0.57979	0.670811
0	O	0.258737	0.508916	0.683046
0	C	0.269821	0.507487	0.667909
0	F	0.247792	0.591348	0.702262
0	C	0.169265	0.523533	0.68871
0	C	0.203272	0.517856	0.680934
0	C	0.174409	0.539131	0.700948
0	C	0.208805	0.533237	0.694204
0	C	0.194331	0.543249	0.704038
0	C	0.183314	0.513445	0.678136
0	H	0.21436	0.513248	0.670411
0	H	0.198499	0.554625	0.714475
0	H	0.153924	0.519811	0.685173
0	C	0.188361	0.594081	0.637431
0	C	0.19333	0.580888	0.668089
0	C	0.181096	0.594768	0.677318
0	C	0.195861	0.578798	0.648117
0	H	0.201302	0.570861	0.676914
0	H	0.236533	0.514198	0.646177
0	C	0.158333	0.55	0.711332
0	O	0.159438	0.570192	0.713285
0	C	0.182768	0.598592	0.698757
0	O	0.276671	0.535372	0.734291
0	C	0.170705	0.607529	0.66546
0	O	0.196757	0.590304	0.708226
0	H	0.146858	0.57332	0.723001
0	O	0.14424	0.540329	0.717678
0	O	0.132359	0.608515	0.697164
0	C	0.270092	0.552196	0.739584
0	C	0.283194	0.571941	0.65847
0	H	0.192268	0.595434	0.622002
0	O	0.207375	0.557958	0.621897
0	O	0.1423	0.535448	0.622252
0	H	0.128959	0.594916	0.701594
0	O	0.171263	0.61197	0.708472
0	H	0.178159	0.616458	0.722012
0	H	0.122366	0.612383	0.688407
0	H	0.381505	0.494943	0.660267
0	O	0.286823	0.553842	0.658778
0	H	0.291924	0.593003	0.701308
0	H	0.432755	0.512271	0.621134
0	H	0.445902	0.524968	0.660466
0	H	0.448545	0.533703	0.640401
0	H	0.339981	0.495211	0.726452
0	O	0.286825	0.515259	0.667494
0	O	0.287546	0.583411	0.710955
0	O	0.291369	0.505768	0.705343
0	O	0.421026	0.5969	0.632161
0	C	0.430055	0.496516	0.719443
0	C	0.291626	0.594499	0.629937
0	C	0.400355	0.507399	0.703256
0	C	0.424345	0.572089	0.692133
0	O	0.39839	0.569132	0.652169
0	H	0.323392	0.520242	0.659009
0	H	0.410543	0.591363	0.724621
0	O	0.433163	0.569046	0.676383
0	C	0.425627	0.590811	0.724504
0	C	0.435634	0.579808	0.709876
0	O	0.384461	0.600942	0.677275
0	O	0.357741	0.575188	0.658591
0	C	0.382474	0.613585	0.664672
0	C	0.437776	0.589064	0.634168
0	C	0.309444	0.508985	0.704874
0	H	0.328935	0.561875	0.689593
0	H	0.321302	0.570453	0.661852
0	Fe	0.382522	0.571783	0.675506
0	O	0.405342	0.570963	0.69416
0	O	0.315009	0.526239	0.701988
0	O	0.408295	0.532251	0.670086
0	O	0.364749	0.576232	0.625897
0	Fe	0.300598	0.540152	0.680556
0	C	0.296523	0.582755	0.645634
0	H	0.335706	0.534266	0.672934
0	C	0.331581	0.583275	0.636369
0	H	0.313613	0.561776	0.707476
0	O	0.383886	0.610001	0.646286
0	C	0.31688	0.578698	0.648868
0	Fe	0.393901	0.585251	0.629092
0	C	0.388983	0.509231	0.686955
0	C	0.391502	0.528908	0.677187
0	Fe	0.422731	0.553607	0.654158
0	C	0.352416	0.57744	0.640622
0	O	0.378023	0.541914	0.675896
0	O	0.324679	0.534194	0.66335
0	O	0.31464	0.563526	0.693408
0	H	0.401694	0.519262	0.712968
0	O	0.435302	0.51449	0.721014
0	O	0.439638	0.57036	0.636248
0	F	0.366726	0.575311	0.698003
0	C	0.436567	0.600152	0.739486
0	O	0.414387	0.545937	0.738906
0	O	0.449115	0.537091	0.654155
0	O	0.412479	0.539869	0.63069
0	H	0.37413	0.607526	0.740229
0	H	0.418331	0.559581	0.741442
0	H	0.209685	0.371404	0.800862
0	Fe	0.120035	0.400068	0.865316
0	H	0.121049	0.40299	0.767675
0	C	0.173733	0.377285	0.834475
0	O	0.248112	0.373527	0.853201
0	H	0.271637	0.372138	0.818982
0	H	0.264872	0.377631	0.761526
0	C	0.124048	0.449209	0.784599
0	C	0.181696	0.370867	0.772735
0	C	0.124091	0.418743	0.767244
0	H	0.204782	0.462632	0.747742
0	H	0.171797	0.382032	0.848993
0	O	0.219395	0.406476	0.748024
0	O	0.197522	0.377988	0.767954
0	C	0.21141	0.42327	0.748241
0	C	0.138627	0.376535	0.831027
0	C	0.207789	0.445899	0.865848
0	O	0.259331	0.377083	0.813346
0	O	0.13648	0.380153	0.849385
0	O	0.124928	0.378126	0.819406
0	C	0.171464	0.445226	0.863401
0	O	0.224525	0.454166	0.863552
0	C	0.136995	0.42635	0.75291
0	C	0.189004	0.455416	0.861411
0	O	0.160742	0.480757	0.764614
0	O	0.136487	0.490107	0.784181
0	C	0.1371	0.456902	0.771061
0	C	0.143146	0.445896	0.754922
0	C	0.145513	0.477439	0.773487
0	C	0.171926	0.479785	0.842864
0	C	0.136515	0.43754	0.853323
0	C	0.153869	0.468906	0.844691
0	O	0.240209	0.416264	0.852561
0	O	0.250817	0.419607	0.811799
0	O	0.241256	0.446684	0.824508
0	C	0.232073	0.464693	0.78836
0	C	0.232568	0.432336	0.775783
0	C	0.220024	0.471053	0.772844
0	C	0.220501	0.43854	0.760141
0	C	0.21434	0.457952	0.758903
0	C	0.237675	0.445649	0.790676
0	C	0.243617	0.436244	0.810164
0	C	0.209032	0.489173	0.774199
0	Fe	0.248736	0.396974	0.833968
0	Fe	0.251009	0.442417	0.851554
0	H	0.233952	0.474611	0.801002
0	H	0.234065	0.416997	0.779149
0	H	0.141286	0.471018	0.835097
0	O	0.276332	0.401992	0.842613
0	O	0.208738	0.388197	0.856198
0	H	0.201376	0.48285	0.849949
0	C	0.153894	0.45094	0.854177
0	C	0.188873	0.473767	0.852183
0	F	0.260238	0.467383	0.851451
0	O	0.277799	0.434466	0.840265
0	C	0.208306	0.386409	0.837155
0	O	0.221666	0.391836	0.826282
0	O	0.13959	0.419505	0.855987
0	C	0.192157	0.376311	0.827001
0	C	0.285717	0.41759	0.838767
0	O	0.12032	0.443955	0.84755
0	C	0.158046	0.371984	0.823341
0	O	0.206075	0.428057	0.868674
0	C	0.194485	0.371816	0.806532
0	O	0.411026	0.403052	0.868721
0	H	0.451033	0.457436	0.80233
0	O	0.337318	0.371212	0.784702
0	O	0.304679	0.373861	0.781129
0	H	0.288463	0.39803	0.805489
0	Fe	0.371243	0.450242	0.864118
0	C	0.35721	0.420026	0.835903
0	C	0.435706	0.448538	0.837697
0	C	0.338473	0.399126	0.813636
0	C	0.411095	0.394576	0.851834
0	O	0.414239	0.404622	0.836448
0	C	0.303019	0.401179	0.812606
0	O	0.373207	0.411674	0.832488
0	C	0.321137	0.418119	0.83729
0	O	0.431926	0.484521	0.774261
0	H	0.413294	0.426072	0.794225
0	O	0.382037	0.449383	0.819932
0	C	0.304017	0.414083	0.828734
0	H	0.40544	0.374207	0.816677
0	C	0.398304	0.481725	0.799761
0	O	0.354999	0.436276	0.844598
0	C	0.320322	0.392747	0.805801
0	C	0.339184	0.411401	0.829372
0	H	0.404796	0.406494	0.797918
0	C	0.320987	0.378758	0.789216
0	O	0.432392	0.374113	0.756297
0	O	0.42131	0.446645	0.826099
0	C	0.38165	0.481431	0.811489
0	O	0.39466	0.437059	0.855342
0	H	0.32059	0.425509	0.851308
0	H	0.41013	0.471343	0.802143
0	H	0.351707	0.394571	0.806835
0	O	0.37665	0.471255	0.844048
0	O	0.436115	0.437136	0.852446
0	C	0.379345	0.46684	0.826146
0	O	0.401734	0.420059	0.800492
0	Fe	0.398306	0.427867	0.82932
0	C	0.404895	0.374203	0.848695
0	F	0.45102	0.4552	0.752627
0	H	0.450698	0.391463	0.787182
0	H	0.335438	0.457124	0.868567
0	O	0.241083	0.618626	0.865193
0	C	0.273764	0.605025	0.869316
0	H	0.12311	0.517477	0.826932
0	O	0.19997	0.496599	0.75985
0	C	0.172257	0.496135	0.828532
0	O	0.208552	0.49776	0.790425
0	O	0.127181	0.600572	0.868706
0	O	0.156751	0.497502	0.819703
0	C	0.255291	0.608012	0.858486
0	O	0.131733	0.611468	0.770561
0	H	0.156972	0.566335	0.753827
0	O	0.178877	0.536632	0.754361
0	O	0.203194	0.539713	0.775869
0	C	0.190186	0.547153	0.764662
0	Fe	0.170997	0.50764	0.758733
0	O	0.170649	0.514424	0.786011
0	Fe	0.195029	0.522365	0.799224
0	O	0.183615	0.546326	0.810824
0	C	0.166426	0.551412	0.816413
0	O	0.151628	0.540066	0.816445
0	O	0.187781	0.506367	0.824312
0	O	0.222718	0.52883	0.8125
0	Fe	0.146275	0.515214	0.799276
0	O	0.14234	0.516305	0.754446
0	O	0.137052	0.534841	0.779327
0	C	0.131098	0.526931	0.764071
0	H	0.227404	0.516754	0.81872
0	H	0.232824	0.530532	0.801944
0	O	0.228674	0.568219	0.824463
0	H	0.230773	0.565774	0.839025
0	H	0.241224	0.562694	0.820556
0	C	0.143565	0.604098	0.757431
0	C	0.277154	0.562624	0.756855
0	C	0.273541	0.590191	0.780923
0	C	0.267857	0.580222	0.763924
0	H	0.254482	0.585442	0.757539
0	C	0.168278	0.576802	0.758809
0	C	0.195744	0.601248	0.774811
0	C	0.186606	0.568869	0.764299
0	C	0.200856	0.581518	0.771143
0	C	0.163034	0.596393	0.763346
0	H	0.214976	0.575109	0.776058
0	C	0.146425	0.579909	0.828091
0	C	0.16434	0.571064	0.825273
0	C	0.180602	0.580391	0.832754
0	H	0.194726	0.573731	0.830171
0	H	0.133435	0.570886	0.825085
0	C	0.126172	0.599948	0.850122
0	C	0.259942	0.603617	0.791781
0	C	0.177267	0.60876	0.769949
0	O	0.206266	0.601412	0.807147
0	C	0.14483	0.596595	0.83947
0	Fe	0.230219	0.599161	0.82464
0	C	0.180061	0.599118	0.841863
0	O	0.213024	0.599138	0.84979
0	C	0.207095	0.610089	0.790408
0	C	0.19785	0.609294	0.84896
0	C	0.16161	0.606943	0.846339
0	O	0.246176	0.594135	0.800818
0	O	0.254658	0.599335	0.842132
0	C	0.452544	0.569732	0.833846
0	C	0.361955	0.53111	0.803171
0	H	0.402578	0.542433	0.747431
0	C	0.38715	0.512296	0.784626
0	O	0.375277	0.55901	0.863898
0	H	0.357345	0.619399	0.746981
0	H	0.293828	0.592164	0.803258
0	H	0.417482	0.565925	0.789135
0	H	0.304731	0.53118	0.84422
0	O	0.369356	0.547098	0.796946
0	O	0.332665	0.569513	0.791413
0	O	0.39321	0.582665	0.837572
0	H	0.286802	0.583082	0.848936
0	C	0.399929	0.581783	0.821004
0	H	0.42818	0.582352	0.849362
0	O	0.321193	0.562242	0.854863
0	C	0.288164	0.591353	0.862278
0	H	0.356892	0.498243	0.820513
0	F	0.366222	0.579166	0.774588
0	C	0.40007	0.495954	0.784719
0	O	0.368842	0.612633	0.752092
0	H	0.390572	0.525214	0.775856
0	C	0.353659	0.614635	0.818074
0	C	0.427496	0.614618	0.75129
0	O	0.346988	0.530404	0.814091
0	H	0.39005	0.616496	0.790776
0	O	0.417144	0.510613	0.759596
0	C	0.420801	0.576594	0.818964
0	C	0.427398	0.567817	0.801206
0	O	0.35194	0.60315	0.804263
0	C	0.323269	0.578995	0.862674
0	C	0.369032	0.496996	0.810257
0	O	0.31613	0.523371	0.840039
0	Fe	0.437246	0.52754	0.746921
0	H	0.3036	0.544947	0.762263
0	C	0.290199	0.584163	0.79018
0	C	0.446962	0.56143	0.799805
0	O	0.356433	0.534205	0.854997
0	O	0.388883	0.581667	0.805854
0	Fe	0.360552	0.574485	0.80087
0	O	0.360218	0.609175	0.834353
0	C	0.371977	0.51299	0.798293
0	C	0.433883	0.578261	0.83495
0	O	0.409804	0.61212	0.755454
0	O	0.354171	0.56798	0.827456
0	C	0.299026	0.566769	0.785117
0	O	0.339301	0.588171	0.861018
0	C	0.417407	0.496236	0.771964
0	C	0.371349	0.540811	0.864079
0	C	0.316711	0.562257	0.797212
0	O	0.314905	0.555464	0.814531
0	Fe	0.366572	0.584092	0.848839
0	C	0.293872	0.556228	0.767937
0	O	0.438731	0.541052	0.773258
0	H	0.313084	0.517198	0.827742
0	Fe	0.335791	0.546145	0.834344
0	O	0.207857	0.398761	0.897099
0	O	0.239838	0.424692	0.895242
0	C	0.255809	0.434145	0.893763
0	O	0.138988	0.483235	0.980666
0	C	0.15733	0.486467	0.981277
0	O	0.252387	0.477329	0.956787
0	Fe	0.238118	0.48664	0.981855
0	O	0.215188	0.467024	0.974161
0	H	0.216385	0.464617	0.960124
0	H	0.219522	0.454265	0.979606
0	O	0.26771	0.416821	0.953168
0	O	0.246662	0.384511	0.970916
0	O	0.168973	0.47279	0.987918
0	C	0.267887	0.438528	0.910813
0	H	0.265948	0.405786	0.944314
0	H	0.251042	0.464366	0.91917
0	H	0.254201	0.419006	0.95868
0	H	0.214703	0.389373	0.905829
0	C	0.264861	0.455674	0.921741
0	C	0.164432	0.37907	0.969588
0	H	0.162326	0.386569	0.955569
0	F	0.135025	0.396615	0.886981
0	H	0.197159	0.390507	0.891255
0	C	0.270431	0.472905	0.954965
0	C	0.276821	0.458954	0.938432
0	O	0.244924	0.388405	0.88158
0	C	0.165954	0.390573	0.987557
0	O	0.262448	0.439602	0.877377
0	O	0.265585	0.40504	0.991005
0	Fe	0.225696	0.40818	0.87448
0	O	0.167897	0.426819	0.990541
0	H	0.236022	0.376463	0.965425
0	C	0.285274	0.428467	0.912696
0	H	0.282812	0.439862	0.994391
0	C	0.158165	0.410974	0.99277
0	O	0.282651	0.477071	0.968499
0	H	0.285207	0.415517	0.905065
0	H	0.172278	0.431437	0.870561
0	C	0.247763	0.372717	0.871933
0	O	0.287591	0.38144	0.965966
0	Fe	0.288949	0.408824	0.973575
0	O	0.291393	0.436829	0.982766
0	H	0.360253	0.388442	0.904232
0	C	0.383517	0.421551	0.932228
0	H	0.302112	0.450861	0.953476
0	O	0.309998	0.39827	0.991743
0	O	0.310184	0.414953	0.956246
0	C	0.369386	0.393521	0.915927
0	O	0.413257	0.418788	0.971304
0	O	0.395133	0.428938	0.895762
0	O	0.30455	0.396611	0.930641
0	C	0.399631	0.473846	0.881863
0	C	0.393812	0.389216	0.941884
0	C	0.379919	0.3811	0.929152
0	C	0.293772	0.447653	0.941603
0	O	0.430932	0.467605	0.95128
0	O	0.417109	0.459421	0.985813
0	F	0.432714	0.42861	0.892619
0	O	0.36601	0.428822	0.884251
0	C	0.377662	0.42456	0.897752
0	H	0.403555	0.379236	0.948823
0	C	0.306665	0.413499	0.937879
0	C	0.395537	0.409763	0.943568
0	C	0.297051	0.431291	0.928535
0	O	0.383804	0.46524	0.885367
0	H	0.418928	0.463361	0.944565
0	H	0.388199	0.436738	0.932754
0	O	0.425629	0.42624	0.942255
0	C	0.373047	0.413775	0.915684
0	C	0.325149	0.389416	0.985325
0	C	0.412932	0.417998	0.953126
0	O	0.327788	0.384548	0.967434
0	O	0.414813	0.464044	0.877316
0	H	0.40333	0.45693	0.988329
0	Fe	0.414207	0.432899	0.873711
0	Fe	0.430596	0.432813	0.991597
0	C	0.451396	0.373646	0.987484
0	Fe	0.307547	0.37236	0.948252
0	O	0.31335	0.484652	0.9916
0	H	0.441504	0.464296	0.916628
0	H	0.4248	0.493439	0.900286
0	H	0.304455	0.436324	0.988891
0	O	0.345805	0.46533	0.873423
0	C	0.354168	0.369739	0.992735
0	H	0.345224	0.463265	0.886636
0	Fe	0.449066	0.443757	0.946402
0	O	0.452273	0.437937	0.973369
0	O	0.44806	0.451095	0.916506
0	H	0.190136	0.494734	0.96286
0	H	0.127874	0.575854	0.911373
0	Fe	0.255742	0.534819	0.991118
0	O	0.227603	0.533176	0.982282
0	C	0.217695	0.522167	0.970924
0	O	0.225603	0.507028	0.963583
0	O	0.2589	0.505525	0.989028
0	O	0.13338	0.598422	0.963767
0	Fe	0.163599	0.598542	0.967406
0	O	0.166476	0.586899	0.938778
0	O	0.160316	0.570956	0.975375
0	O	0.193413	0.597116	0.973855
0	H	0.17111	0.597013	0.929981
0	H	0.177715	0.578254	0.939446
0	C	0.184424	0.507504	0.969167
0	C	0.189271	0.540529	0.979693
0	C	0.165603	0.506671	0.977858
0	C	0.19617	0.52379	0.970873
0	C	0.15744	0.524703	0.984681
0	C	0.170008	0.541359	0.986931
0	H	0.198705	0.552706	0.982051
0	O	0.268513	0.536308	0.964895
0	C	0.223966	0.610347	0.985372
0	C	0.202783	0.612143	0.978977
0	C	0.163746	0.561791	0.991363
0	O	0.126265	0.571585	0.89821
0	O	0.159688	0.608961	0.992667
0	O	0.124151	0.585228	0.992388
0	F	0.25111	0.561395	0.991018
0	C	0.240038	0.617344	0.974022
0	H	0.141887	0.52403	0.988544
0	C	0.259114	0.615189	0.981316
0	C	0.278813	0.618693	0.884043
0	C	0.120173	0.589867	0.974518
0	C	0.285709	0.530968	0.961648
0	Fe	0.285511	0.496005	0.990881
0	H	0.138364	0.573442	0.891228
0	C	0.384683	0.507403	0.876838
0	O	0.452625	0.519449	0.904833
0	O	0.379679	0.600047	0.871743
0	H	0.352159	0.618362	0.898427
0	C	0.399453	0.49559	0.884759
0	H	0.331068	0.50747	0.888287
0	C	0.331519	0.528057	0.907036
0	O	0.294482	0.51668	0.971288
0	C	0.309911	0.599989	0.888281
0	H	0.298153	0.567707	0.96497
0	C	0.304369	0.56045	0.952954
0	C	0.403362	0.534945	0.884709
0	O	0.441873	0.548062	0.894261
0	C	0.330312	0.556435	0.928634
0	O	0.343685	0.536863	0.895735
0	C	0.327896	0.587875	0.946875
0	C	0.323962	0.538264	0.924133
0	C	0.438909	0.530427	0.896972
0	H	0.322899	0.598059	0.897611
0	O	0.324308	0.510372	0.902013
0	C	0.32133	0.567852	0.943529
0	C	0.308586	0.530297	0.935232
0	C	0.418262	0.522976	0.892277
0	O	0.329795	0.592571	0.964659
0	O	0.330362	0.599099	0.931967
0	C	0.414671	0.503213	0.893662
0	H	0.405398	0.550409	0.886557
0	C	0.297911	0.54163	0.948394
0	H	0.303664	0.515534	0.932898
0	H	0.342532	0.563562	0.921345
0	O	0.291694	0.609225	0.972071
0	C	0.418034	0.614474	0.97673
0	C	0.386536	0.527815	0.875607
0	O	0.452687	0.612157	0.973665
0	C	0.296425	0.614929	0.89424
0	C	0.436508	0.618927	0.966613
0	C	0.306675	0.589813	0.871302
0	H	0.393478	0.597133	0.870904
0	O	0.451803	0.583462	0.909596
0	Fe	0.320811	0.618221	0.976748
0	H	0.371317	0.499947	0.870922
0	H	0.378799	0.613964	0.869793
0	O	0.224576	0.487552	0.115603
0	O	0.212186	0.446772	0.113498
0	H	0.274135	0.401818	0.114743
0	H	0.199973	0.437295	0.0081683
0	O	0.249365	0.464572	0.999404
0	O	0.273186	0.379007	0.00740371
0	H	0.199042	0.453349	0.0244107
0	H	0.25146	0.448846	0.0890355
0	O	0.142452	0.410363	0.0033886
0	C	0.170124	0.380428	0.00569918
0	O	0.138935	0.452256	0.01114
0	O	0.248317	0.457599	0.099685
0	Fe	0.232162	0.481288	0.0889618
0	F	0.23947	0.473369	0.0634545
0	O	0.169268	0.472981	0.0297928
0	O	0.207867	0.464695	0.0875262
0	O	0.169932	0.432344	0.0339388
0	O	0.139953	0.42731	0.0439545
0	C	0.152336	0.419629	0.0828408
0	C	0.183457	0.433705	0.0727574
0	C	0.157043	0.420867	0.102721
0	C	0.188062	0.436311	0.0922016
0	C	0.176164	0.428323	0.107287
0	C	0.16528	0.425622	0.0676204
0	C	0.20434	0.448725	0.0971183
0	C	0.158186	0.428459	0.0470281
0	Fe	0.167728	0.451009	0.00983986
0	O	0.198059	0.450942	0.0104605
0	H	0.138153	0.412588	0.0779707
0	H	0.194002	0.439522	0.0610292
0	C	0.26254	0.464262	0.0126258
0	C	0.267569	0.397123	0.00748258
0	H	0.16985	0.389393	0.0180784
0	C	0.256625	0.429079	0.0205366
0	C	0.266949	0.411179	0.0242946
0	C	0.264652	0.446764	0.0260174
0	H	0.245231	0.429305	0.0096471
0	C	0.158941	0.488746	0.0312644
0	H	0.261037	0.464229	0.102376
0	O	0.276477	0.476005	0.0124167
0	O	0.126096	0.410441	0.110937
0	Fe	0.124736	0.428994	0.0185899
0	Fe	0.123617	0.476364	0.00541479
0	C	0.279767	0.446545	0.0398742
0	C	0.281906	0.410864	0.0376569
0	H	0.219702	0.484017	0.0140851
0	O	0.143709	0.491645	0.0212756
0	H	0.192644	0.492323	0.0507875
0	H	0.283881	0.388024	0.0749426
0	C	0.142012	0.416237	0.117879
0	H	0.421038	0.469195	0.995992
0	H	0.296671	0.37076	0.0802868
0	H	0.451324	0.391882	0.102439
0	H	0.286932	0.460245	0.0439346
0	C	0.336606	0.372492	0.104567
0	C	0.341003	0.383646	0.999013
0	C	0.28921	0.428809	0.0444866
0	O	0.426519	0.456169	0.117704
0	H	0.289216	0.397882	0.0396806
0	C	0.352381	0.378505	0.0321711
0	O	0.353872	0.376695	0.097567
0	C	0.301986	0.425668	0.108202
0	O	0.317791	0.414531	0.053398
0	O	0.312887	0.443595	0.0678323
0	O	0.316518	0.436522	0.109524
0	C	0.373456	0.447397	0.0740899
0	C	0.307636	0.429841	0.0552853
0	Fe	0.335899	0.442192	0.0891717
0	O	0.408882	0.426054	0.0118325
0	O	0.378674	0.430543	0.0812307
0	H	0.401594	0.403503	0.0919288
0	O	0.365621	0.395312	0.0589088
0	O	0.393697	0.392248	0.0914817
0	Fe	0.365584	0.403722	0.0880655
0	C	0.340328	0.388299	0.0188657
0	O	0.445599	0.447326	0.014207
0	O	0.446688	0.480518	0.110287
0	H	0.369841	0.486181	0.0617451
0	H	0.439914	0.467911	0.0430089
0	F	0.332859	0.469319	0.0928364
0	O	0.356131	0.450362	0.0700458
0	O	0.340401	0.415674	0.084516
0	C	0.383769	0.48268	0.0679001
0	H	0.413088	0.429816	0.025104
0	O	0.322219	0.383304	0.101564
0	O	0.355796	0.442155	0.114181
0	C	0.416712	0.476043	0.0915986
0	O	0.298812	0.415373	0.0930292
0	O	0.366044	0.411593	0.115503
0	H	0.330746	0.40014	0.023646
0	C	0.431181	0.470622	0.107264
0	H	0.392868	0.387857	0.104825
0	C	0.40505	0.461169	0.0839563
0	C	0.387573	0.463311	0.074119
0	C	0.352072	0.384735	0.0527918
0	H	0.410074	0.445968	0.0875415
0	O	0.443437	0.405799	0.99649
0	O	0.337956	0.380618	0.0633773
0	H	0.406473	0.411599	0.011523
0	Fe	0.319461	0.399349	0.0775624
0	O	0.29647	0.381478	0.0703729
0	H	0.314094	0.473007	0.999213
0	H	0.160228	0.566036	0.115964
0	H	0.217245	0.551558	0.115959
0	O	0.151184	0.577472	0.117971
0	O	0.266517	0.618936	0.0752413
0	O	0.130693	0.617444	0.015445
0	H	0.194087	0.619234	0.0687599
0	O	0.222182	0.496101	0.00625362
0	O	0.257155	0.49755	0.0903412
0	H	0.276135	0.611615	0.00751136
0	C	0.127307	0.615921	0.0564869
0	Fe	0.125218	0.564282	0.10977
0	C	0.261616	0.610474	0.00117951
0	O	0.248773	0.522719	0.109847
0	O	0.216063	0.502783	0.0761971
0	C	0.261474	0.513362	0.0998809
0	C	0.169923	0.528403	0.0761373
0	C	0.15193	0.528185	0.066458
0	C	0.202723	0.513227	0.0827291
0	C	0.18537	0.516384	0.0701604
0	C	0.149567	0.516106	0.0503802
0	C	0.18177	0.502754	0.0545658
0	C	0.164872	0.503791	0.0442731
0	O	0.202682	0.518675	0.0998937
0	H	0.172047	0.538474	0.0884616
0	H	0.136142	0.516462	0.0423422
0	O	0.245841	0.53226	0.0192546
0	H	0.231278	0.532632	0.0182824
0	O	0.264529	0.575746	0.0699425
0	O	0.269235	0.598917	0.0386629
0	Fe	0.246181	0.599949	0.0781836
0	O	0.224134	0.579551	0.0810932
0	O	0.238471	0.602974	0.0487518
0	O	0.252319	0.596623	0.107887
0	C	0.25121	0.601918	0.0348322
0	H	0.213872	0.584565	0.0731733
0	H	0.219312	0.579916	0.0950686
0	O	0.165247	0.609082	0.0346431
0	Fe	0.14699	0.594873	0.0125169
0	O	0.163478	0.569737	0.00854595
0	F	0.135187	0.581589	0.0322083
0	C	0.245932	0.605198	0.0137148
0	C	0.227594	0.603929	0.00466355
0	H	0.215018	0.598915	0.0132502
0	H	0.250041	0.518895	0.0225426
0	H	0.273344	0.548518	0.0430596
0	C	0.134805	0.540328	0.0733915
0	O	0.138488	0.554819	0.0845318
0	C	0.281969	0.520321	0.10028
0	H	0.140772	0.609228	0.0588955
0	O	0.282035	0.541926	0.00353992
0	C	0.283415	0.57478	0.0689972
0	H	0.154543	0.587577	0.107804
0	C	0.360236	0.615556	0.100739
0	C	0.349911	0.55424	0.0547468
0	H	0.321337	0.49462	0.999319
0	O	0.403954	0.551002	0.103494
0	O	0.448903	0.522172	0.0652527
0	C	0.313872	0.517048	0.0860302
0	H	0.326894	0.497448	0.0438635
0	C	0.411824	0.495538	0.0861217
0	H	0.436512	0.610902	0.0851391
0	H	0.286591	0.503987	0.0748123
0	O	0.424519	0.559582	0.039197
0	H	0.390104	0.525287	0.0186081
0	H	0.434902	0.615304	0.0630314
0	O	0.383242	0.605953	0.0754013
0	H	0.410244	0.599314	0.106702
0	Fe	0.408128	0.590763	0.0705165
0	C	0.373379	0.601121	0.0910916
0	F	0.364369	0.546777	0.10833
0	C	0.417406	0.606828	0.995874
0	C	0.396486	0.498362	0.0731271
0	O	0.363229	0.548221	0.0427922
0	C	0.444987	0.504526	0.0563292
0	Fe	0.377833	0.556426	0.0882033
0	C	0.437529	0.568361	0.0492864
0	C	0.399804	0.604031	0.00661159
0	C	0.288842	0.550525	0.0454153
0	H	0.425694	0.585027	0.103107
0	H	0.442764	0.601426	0.0303984
0	O	0.293675	0.590352	0.0728239
0	C	0.326535	0.507513	0.0709489
0	H	0.409515	0.535792	0.0136525
0	O	0.34479	0.51015	0.0713867
0	H	0.331424	0.539057	0.0218139
0	Fe	0.287515	0.614473	0.0580683
0	O	0.426583	0.613882	0.0753021
0	O	0.294034	0.513747	0.012976
0	F	0.3083	0.60876	0.0422334
0	C	0.382758	0.609516	0.998009
0	O	0.380775	0.527948	0.0801888
0	C	0.328897	0.55285	0.0501137
0	O	0.392406	0.567471	0.0664272
0	O	0.432907	0.575539	0.0657998
0	O	0.318046	0.49687	0.0567714
0	C	0.398158	0.592727	0.0247425
0	O	0.406777	0.598668	0.0400941
0	O	0.321261	0.604571	0.00288578
0	O	0.396263	0.538026	0.0160591
0	O	0.428968	0.503	0.0477821
0	O	0.388632	0.577314	0.0249819
0	H	0.430413	0.603528	0.00383445
0	H	0.368377	0.607807	0.0059011
0	C	0.321488	0.543703	0.0336944
0	C	0.289783	0.531785	0.114752
0	C	0.295743	0.560093	0.0610611
0	C	0.391706	0.51878	0.0679372
0	C	0.321864	0.529543	0.10026
0	O	0.401293	0.527341	0.0551663
0	H	0.419626	0.507835	0.0914325
0	H	0.321997	0.569661	0.0747188
0	C	0.301456	0.541838	0.0315952
0	C	0.310199	0.536486	0.114465
0	H	0.399821	0.545193	0.115486
0	H	0.435918	0.531275	0.0651587
0	Fe	0.393976	0.5531	0.0417654
0	H	0.332092	0.595241	0.000951772
0	O	0.374	0.583876	0.0985448
0	H	0.337446	0.531897	0.100848
0	C	0.293673	0.513646	0.085666
0	H	0.309365	0.596116	0.00355272
0	C	0.29271	0.531898	0.0147316
0	C	0.316057	0.560791	0.0634017
0	O	0.411574	0.585894	0.100715
0	O	0.354116	0.55958	0.0726692
0	O	0.161839	0.673666	0.230346
0	O	0.189774	0.683041	0.21588
0	C	0.154817	0.715274	0.237648
0	C	0.17321	0.721381	0.207717
0	C	0.168259	0.70834	0.223438
0	C	0.164	0.740448	0.205965
0	C	0.172784	0.687398	0.222705
0	C	0.14229	0.730709	0.232798
0	O	0.18443	0.639888	0.21471
0	O	0.143226	0.635589	0.22886
0	C	0.136817	0.631632	0.212611
0	O	0.149302	0.733922	0.137568
0	O	0.181202	0.733466	0.140956
0	O	0.174555	0.639754	0.174253
0	O	0.195734	0.664473	0.179937
0	C	0.176884	0.690045	0.153099
0	C	0.164586	0.702583	0.141344
0	C	0.172158	0.669852	0.154972
0	C	0.18139	0.656763	0.170622
0	C	0.165085	0.724711	0.139731
0	Fe	0.205602	0.658952	0.207853
0	F	0.226224	0.67624	0.202324
0	O	0.217046	0.657372	0.236455
0	H	0.189473	0.695627	0.159034
0	H	0.183197	0.71674	0.195405
0	C	0.259329	0.692407	0.158531
0	H	0.259207	0.680917	0.169053
0	Fe	0.168778	0.644382	0.239242
0	O	0.226132	0.637275	0.199344
0	C	0.154829	0.66342	0.145144
0	O	0.22839	0.665061	0.154538
0	H	0.151145	0.648077	0.14483
0	C	0.274785	0.705421	0.157813
0	C	0.144967	0.675342	0.131682
0	C	0.228867	0.6792	0.142668
0	C	0.244843	0.693503	0.144117
0	C	0.149118	0.69491	0.13107
0	C	0.275919	0.717784	0.141831
0	C	0.245651	0.707812	0.129396
0	C	0.26147	0.720191	0.127502
0	C	0.12537	0.670047	0.124923
0	O	0.214572	0.680309	0.127764
0	H	0.203892	0.669449	0.130864
0	C	0.122144	0.729756	0.239828
0	C	0.146705	0.743558	0.217349
0	H	0.274455	0.707959	0.221229
0	H	0.286011	0.706658	0.240573
0	O	0.282323	0.699743	0.228461
0	H	0.227623	0.624806	0.149125
0	H	0.266762	0.664613	0.121624
0	C	0.22279	0.622052	0.189746
0	O	0.147548	0.62316	0.199834
0	H	0.141628	0.704512	0.12043
0	C	0.345012	0.623931	0.131972
0	H	0.289707	0.724996	0.139219
0	H	0.434366	0.633072	0.197896
0	H	0.293588	0.664458	0.222379
0	O	0.289185	0.697116	0.188851
0	H	0.299503	0.662772	0.199734
0	F	0.372059	0.655322	0.213358
0	O	0.343046	0.668705	0.231418
0	O	0.365375	0.707453	0.180583
0	H	0.317082	0.637707	0.13146
0	C	0.389571	0.733029	0.220572
0	O	0.335738	0.647725	0.19458
0	Fe	0.308129	0.695851	0.212057
0	O	0.31217	0.727395	0.213027
0	C	0.373518	0.70782	0.19732
0	H	0.383628	0.726179	0.233238
0	O	0.303827	0.666294	0.212188
0	Fe	0.336915	0.706454	0.17388
0	H	0.380405	0.669594	0.178126
0	O	0.368872	0.696149	0.211174
0	C	0.322595	0.739116	0.202876
0	O	0.33379	0.732343	0.189031
0	H	0.328538	0.67295	0.161131
0	H	0.332666	0.646299	0.180751
0	O	0.331715	0.690477	0.196105
0	H	0.386795	0.732889	0.169931
0	C	0.422804	0.639413	0.159791
0	O	0.365709	0.671967	0.176892
0	C	0.29165	0.703126	0.171162
0	O	0.337717	0.682161	0.156259
0	O	0.30805	0.709601	0.164436
0	C	0.391114	0.735987	0.185212
0	C	0.385218	0.724846	0.20159
0	H	0.361716	0.658395	0.172595
0	Fe	0.353139	0.671832	0.204168
0	O	0.343911	0.723156	0.148665
0	O	0.323142	0.693719	0.237349
0	O	0.43983	0.648097	0.163385
0	H	0.348546	0.714556	0.138023
0	C	0.412385	0.629406	0.17616
0	O	0.413822	0.642281	0.142281
0	H	0.424845	0.644871	0.130756
0	H	0.354788	0.731163	0.153452
0	C	0.420249	0.628401	0.195326
0	C	0.329864	0.633104	0.122306
0	C	0.410425	0.620273	0.210119
0	C	0.332196	0.678634	0.242775
0	C	0.393744	0.619747	0.172557
0	H	0.248199	0.807805	0.128272
0	H	0.223581	0.761064	0.159009
0	H	0.21976	0.746547	0.142319
0	O	0.179355	0.748892	0.176696
0	O	0.215139	0.750715	0.154822
0	O	0.193901	0.773602	0.124305
0	H	0.129147	0.797787	0.195841
0	C	0.166101	0.753687	0.189183
0	O	0.160285	0.77123	0.146775
0	Fe	0.186464	0.760928	0.150831
0	O	0.196391	0.784642	0.164732
0	C	0.188584	0.800705	0.169887
0	O	0.17144	0.80569	0.165321
0	O	0.156304	0.769466	0.188048
0	Fe	0.147817	0.7881	0.165144
0	O	0.136399	0.806297	0.185727
0	O	0.137324	0.806924	0.142248
0	H	0.135366	0.752873	0.212152
0	F	0.254696	0.837179	0.190975
0	O	0.232365	0.789994	0.230382
0	C	0.217467	0.800161	0.234091
0	O	0.274547	0.782972	0.232046
0	C	0.204695	0.801669	0.201516
0	C	0.197611	0.832365	0.186619
0	C	0.207266	0.810739	0.219272
0	C	0.201519	0.842351	0.204303
0	C	0.203008	0.830966	0.221335
0	C	0.198211	0.812003	0.185281
0	H	0.203729	0.837051	0.235327
0	H	0.206199	0.785761	0.200215
0	O	0.229286	0.860358	0.210028
0	H	0.193694	0.840262	0.173765
0	O	0.273373	0.861031	0.21649
0	Fe	0.251766	0.86363	0.191683
0	C	0.211957	0.860933	0.203933
0	O	0.233287	0.865412	0.164484
0	H	0.144743	0.842924	0.134579
0	F	0.140356	0.861007	0.239532
0	O	0.272425	0.865289	0.172229
0	H	0.233536	0.850593	0.128501
0	Fe	0.145682	0.762059	0.1254
0	O	0.124061	0.773729	0.167513
0	H	0.126755	0.811957	0.176933
0	O	0.284069	0.81337	0.234201
0	C	0.285919	0.796378	0.227285
0	C	0.225878	0.861804	0.121036
0	O	0.251533	0.749678	0.237531
0	H	0.258813	0.75183	0.225256
0	H	0.284152	0.844189	0.145172
0	C	0.138437	0.805871	0.123402
0	C	0.138887	0.842055	0.120004
0	C	0.414046	0.865687	0.219211
0	C	0.451207	0.792646	0.157232
0	C	0.448802	0.820417	0.13465
0	C	0.400296	0.750638	0.221958
0	H	0.445267	0.818679	0.213005
0	H	0.298906	0.760115	0.226588
0	O	0.337481	0.81382	0.165773
0	C	0.314815	0.80237	0.203283
0	C	0.420965	0.808267	0.150364
0	O	0.413446	0.791999	0.144744
0	O	0.364325	0.809374	0.237517
0	O	0.383802	0.767644	0.160344
0	C	0.405875	0.759597	0.205985
0	C	0.322105	0.760949	0.205738
0	C	0.330625	0.793701	0.193107
0	H	0.344465	0.766871	0.185974
0	C	0.436166	0.845717	0.198627
0	O	0.396155	0.822358	0.2002
0	C	0.417903	0.852906	0.234018
0	H	0.392838	0.811301	0.209621
0	O	0.362317	0.843677	0.141316
0	O	0.398916	0.786697	0.178961
0	O	0.361689	0.803868	0.186684
0	C	0.399033	0.762618	0.239441
0	Fe	0.351488	0.816144	0.138361
0	O	0.411353	0.821744	0.159295
0	H	0.414049	0.772936	0.206849
0	C	0.394747	0.769771	0.174392
0	H	0.386517	0.83271	0.204133
0	C	0.42548	0.835165	0.230564
0	C	0.436905	0.832143	0.213916
0	O	0.376903	0.842961	0.170109
0	C	0.333573	0.772837	0.194662
0	C	0.303581	0.789937	0.215241
0	C	0.307719	0.769793	0.21765
0	H	0.311935	0.817949	0.201478
0	O	0.374715	0.805063	0.148627
0	C	0.371293	0.852331	0.15584
0	C	0.34401	0.804634	0.181215
0	O	0.393975	0.779918	0.237388
0	Fe	0.386724	0.814025	0.172647
0	C	0.441491	0.808905	0.149101
0	C	0.399085	0.754589	0.187744
0	Fe	0.387234	0.783102	0.136221
0	C	0.292954	0.855411	0.139248
0	O	0.33817	0.78971	0.133412
0	H	0.441387	0.833488	0.130568
0	C	0.423175	0.862279	0.2005
0	F	0.329146	0.825335	0.12874
0	H	0.352794	0.801053	0.238888
0	H	0.359361	0.821536	0.241274
0	C	0.344779	0.775238	0.123851
0	O	0.362865	0.771655	0.124497
0	O	0.448717	0.855399	0.16637
0	C	0.449548	0.84396	0.181187
0	C	0.421002	0.821121	0.244145
0	H	0.444509	0.783105	0.168181
0	H	0.413059	0.759845	0.130272
0	C	0.301477	0.852281	0.120579
0	O	0.400258	0.758937	0.124339
0	H	0.245695	0.620644	0.369188
0	C	0.275038	0.740483	0.368006
0	H	0.259997	0.7413	0.24503
0	H	0.150994	0.706105	0.250515
0	O	0.19685	0.624839	0.365335
0	H	0.274405	0.73329	0.353914
0	O	0.267037	0.624183	0.273043
0	O	0.152672	0.648246	0.264156
0	O	0.191038	0.655226	0.255518
0	C	0.208545	0.659177	0.253199
0	H	0.158469	0.658982	0.271206
0	O	0.162211	0.671604	0.35836
0	O	0.22164	0.668434	0.337847
0	C	0.210712	0.659228	0.32606
0	C	0.21026	0.663573	0.290284
0	C	0.2383	0.654403	0.27196
0	C	0.218613	0.655998	0.307135
0	C	0.244385	0.644161	0.287877
0	C	0.23618	0.646719	0.306062
0	C	0.219798	0.66121	0.272397
0	H	0.245337	0.652802	0.258351
0	H	0.19571	0.670433	0.290896
0	H	0.243976	0.643219	0.319394
0	H	0.152926	0.637764	0.273892
0	C	0.167317	0.685276	0.347
0	C	0.152035	0.699176	0.341764
0	C	0.144625	0.732939	0.340938
0	C	0.157355	0.717972	0.337412
0	H	0.172793	0.721068	0.332793
0	O	0.193976	0.65265	0.332977
0	C	0.132196	0.695326	0.344702
0	O	0.22132	0.709465	0.342409
0	H	0.209948	0.718144	0.340324
0	H	0.230589	0.715742	0.351054
0	O	0.185145	0.688992	0.343612
0	Fe	0.210652	0.685672	0.358868
0	Fe	0.179751	0.649127	0.361467
0	H	0.127762	0.680623	0.350947
0	F	0.161009	0.633716	0.35077
0	C	0.1244	0.729386	0.342508
0	C	0.252	0.625386	0.284005
0	C	0.447443	0.709512	0.317019
0	H	0.388125	0.627591	0.318773
0	H	0.394931	0.664311	0.360866
0	C	0.414986	0.730969	0.364529
0	O	0.399684	0.622036	0.360951
0	C	0.446258	0.725268	0.349652
0	O	0.438178	0.703061	0.301764
0	O	0.299241	0.708493	0.358305
0	H	0.384712	0.655249	0.342588
0	Fe	0.34523	0.723434	0.362222
0	O	0.382254	0.699377	0.355347
0	O	0.33083	0.736156	0.3395
0	O	0.3286	0.67509	0.321189
0	C	0.346599	0.66626	0.294566
0	O	0.361299	0.679222	0.323757
0	O	0.311151	0.665536	0.361285
0	C	0.310223	0.627545	0.28791
0	C	0.344192	0.677238	0.277269
0	Fe	0.314208	0.690904	0.341484
0	C	0.321456	0.730294	0.324088
0	C	0.416648	0.715332	0.332895
0	O	0.340012	0.698467	0.352317
0	O	0.414356	0.736737	0.290133
0	H	0.40495	0.734856	0.301715
0	C	0.331125	0.671129	0.262628
0	H	0.309222	0.649428	0.255085
0	O	0.314312	0.713656	0.322565
0	O	0.369875	0.727934	0.345545
0	C	0.436824	0.717023	0.333525
0	C	0.384488	0.716949	0.34911
0	H	0.410481	0.706361	0.322173
0	Fe	0.36022	0.679233	0.353534
0	H	0.427948	0.737973	0.294765
0	C	0.322199	0.644393	0.283956
0	C	0.318964	0.655425	0.267126
0	C	0.345799	0.675905	0.313675
0	C	0.404956	0.723228	0.34795
0	C	0.338048	0.648083	0.295314
0	H	0.339299	0.638578	0.308094
0	H	0.352745	0.690914	0.275438
0	F	0.289706	0.683615	0.330725
0	O	0.340655	0.656318	0.353045
0	O	0.382245	0.658427	0.356276
0	C	0.32464	0.652459	0.361414
0	O	0.306785	0.622703	0.305832
0	H	0.410272	0.629495	0.354692
0	C	0.321965	0.742264	0.307115
0	C	0.435137	0.732514	0.365237
0	H	0.41849	0.619915	0.275018
0	H	0.352993	0.742755	0.30928
0	O	0.203237	0.816506	0.3676
0	O	0.238983	0.780074	0.36282
0	C	0.252049	0.765607	0.35795
0	O	0.25355	0.759309	0.339985
0	H	0.202667	0.749308	0.325218
0	H	0.128948	0.842216	0.314951
0	H	0.235043	0.757317	0.27666
0	H	0.219469	0.759277	0.25838
0	O	0.125794	0.832131	0.264171
0	Fe	0.251548	0.777567	0.250666
0	O	0.211469	0.80111	0.250953
0	Fe	0.141571	0.794779	0.343715
0	O	0.153981	0.80102	0.317683
0	C	0.160348	0.786436	0.308729
0	O	0.175247	0.777533	0.315545
0	O	0.142013	0.766256	0.338707
0	Fe	0.227699	0.814532	0.271878
0	O	0.242319	0.829888	0.291128
0	C	0.257636	0.825709	0.300912
0	O	0.272401	0.819451	0.292785
0	O	0.224134	0.792942	0.293343
0	O	0.251791	0.803001	0.262401
0	Fe	0.276378	0.817069	0.263405
0	O	0.230423	0.838862	0.255165
0	O	0.261776	0.844312	0.258075
0	C	0.243814	0.850543	0.256043
0	O	0.227655	0.767122	0.267493
0	F	0.202677	0.825364	0.281163
0	C	0.145075	0.857191	0.337916
0	C	0.143546	0.79563	0.280232
0	C	0.148623	0.779306	0.291902
0	C	0.135312	0.763114	0.294014
0	H	0.154635	0.805435	0.27529
0	C	0.271506	0.825319	0.334732
0	C	0.236912	0.822158	0.329957
0	C	0.255612	0.825325	0.322495
0	H	0.224823	0.820537	0.319326
0	H	0.210226	0.789119	0.293243
0	O	0.272108	0.766494	0.270952
0	O	0.209609	0.760397	0.330923
0	C	0.13365	0.856039	0.320725
0	H	0.141238	0.749912	0.299528
0	O	0.206224	0.801706	0.339301
0	C	0.152925	0.751926	0.343447
0	O	0.138364	0.824186	0.346786
0	Fe	0.187663	0.777809	0.344133
0	C	0.150838	0.83832	0.348387
0	H	0.212616	0.768349	0.319545
0	C	0.269902	0.827885	0.355054
0	C	0.234272	0.820809	0.349984
0	C	0.213772	0.812903	0.352802
0	O	0.170359	0.753624	0.349523
0	O	0.167265	0.7941	0.35601
0	C	0.124132	0.79821	0.275831
0	C	0.250657	0.824853	0.363302
0	O	0.165577	0.836533	0.359694
0	H	0.230879	0.783707	0.349601
0	H	0.285252	0.826241	0.327262
0	O	0.446442	0.79033	0.285454
0	O	0.342576	0.861373	0.365744
0	O	0.402823	0.818107	0.245136
0	H	0.414471	0.857041	0.249379
0	C	0.449802	0.779997	0.270932
0	O	0.339365	0.796702	0.368781
0	H	0.323563	0.78949	0.340099
0	Fe	0.409489	0.764159	0.282365
0	C	0.326449	0.770287	0.278612
0	H	0.347187	0.84352	0.319407
0	H	0.372858	0.813047	0.291935
0	O	0.338778	0.787297	0.336873
0	O	0.416643	0.803099	0.313302
0	C	0.402247	0.786407	0.3393
0	O	0.340171	0.83699	0.330197
0	C	0.41088	0.786655	0.358175
0	O	0.303947	0.832353	0.266859
0	Fe	0.425055	0.810319	0.285404
0	C	0.289812	0.773946	0.274021
0	Fe	0.322242	0.857839	0.343166
0	O	0.378988	0.76106	0.291134
0	H	0.328434	0.780318	0.266241
0	H	0.349214	0.832635	0.340658
0	C	0.340842	0.747948	0.301353
0	H	0.29112	0.745724	0.303128
0	C	0.369724	0.787253	0.355981
0	O	0.416737	0.770862	0.311146
0	O	0.365325	0.780258	0.268868
0	H	0.424025	0.84776	0.341004
0	C	0.343547	0.762417	0.287157
0	C	0.381212	0.786165	0.338972
0	O	0.304461	0.835491	0.356007
0	H	0.37536	0.786072	0.324745
0	O	0.292763	0.791848	0.269766
0	O	0.432245	0.816544	0.257312
0	H	0.409939	0.83918	0.298445
0	C	0.287516	0.836418	0.364659
0	C	0.306765	0.763811	0.282812
0	O	0.438069	0.766001	0.26896
0	C	0.412661	0.786234	0.319833
0	O	0.405226	0.791025	0.27645
0	H	0.359826	0.817983	0.273029
0	Fe	0.385178	0.799306	0.258246
0	H	0.425488	0.78542	0.358134
0	O	0.401199	0.754425	0.255665
0	O	0.373616	0.81914	0.2787
0	F	0.443255	0.828879	0.294289
0	O	0.429418	0.856711	0.331705
0	C	0.305172	0.749514	0.298131
0	O	0.306245	0.856974	0.316192
0	H	0.313639	0.826614	0.257894
0	C	0.348363	0.790178	0.35407
0	H	0.441513	0.849397	0.328518
0	O	0.406464	0.83286	0.285944
0	C	0.364226	0.768058	0.282041
0	H	0.308755	0.828559	0.280168
0	O	0.214043	0.68982	0.40529
0	C	0.199335	0.724792	0.426404
0	C	0.2045	0.723185	0.406323
0	C	0.206556	0.70421	0.396497
0	Fe	0.172571	0.720755	0.486359
0	Fe	0.211833	0.658901	0.397784
0	O	0.164486	0.648979	0.38842
0	C	0.155273	0.67691	0.434758
0	C	0.168077	0.65678	0.405775
0	O	0.160975	0.704189	0.465112
0	O	0.239453	0.657064	0.384806
0	C	0.246328	0.674117	0.384093
0	H	0.170789	0.680617	0.438412
0	H	0.199744	0.711296	0.434901
0	C	0.273938	0.714179	0.440783
0	C	0.263082	0.695832	0.409923
0	C	0.262416	0.678819	0.398101
0	C	0.275464	0.663574	0.403173
0	H	0.252382	0.707589	0.40732
0	O	0.200187	0.702932	0.379636
0	O	0.268902	0.731053	0.435211
0	O	0.19103	0.733662	0.46588
0	C	0.151783	0.66556	0.418364
0	O	0.185218	0.659835	0.41212
0	O	0.224812	0.653784	0.424587
0	H	0.218611	0.642486	0.429825
0	C	0.143605	0.699406	0.461285
0	C	0.139519	0.684872	0.44559
0	H	0.238009	0.649947	0.421083
0	C	0.131524	0.663291	0.411204
0	O	0.146229	0.636359	0.479853
0	O	0.211059	0.628647	0.394272
0	C	0.274831	0.696709	0.426613
0	O	0.278026	0.709673	0.458266
0	O	0.129481	0.707433	0.469763
0	H	0.129093	0.655945	0.397264
0	Fe	0.123882	0.73379	0.484983
0	O	0.192573	0.699125	0.490301
0	H	0.158967	0.64057	0.4763
0	H	0.276117	0.65201	0.393202
0	H	0.208303	0.739178	0.378584
0	C	0.203919	0.740017	0.39454
0	H	0.220498	0.734498	0.493562
0	C	0.259706	0.738768	0.491441
0	O	0.200361	0.664124	0.372914
0	O	0.237222	0.687272	0.374329
0	C	0.121051	0.682418	0.438388
0	H	0.201015	0.700158	0.478602
0	O	0.152861	0.741336	0.484835
0	O	0.254573	0.735911	0.474276
0	C	0.193987	0.743147	0.433989
0	C	0.287805	0.680713	0.430998
0	C	0.289389	0.732918	0.379926
0	C	0.2884	0.663363	0.419455
0	O	0.321316	0.720599	0.378634
0	O	0.430522	0.635042	0.464067
0	O	0.31798	0.718042	0.456548
0	O	0.359607	0.71171	0.38569
0	Fe	0.296944	0.725049	0.475694
0	H	0.373736	0.689948	0.47726
0	H	0.32007	0.634299	0.443916
0	Fe	0.438582	0.658308	0.482451
0	O	0.415977	0.723719	0.421113
0	O	0.357625	0.680299	0.383933
0	H	0.391581	0.681846	0.463239
0	C	0.383439	0.71692	0.432205
0	O	0.434427	0.675575	0.458201
0	H	0.420488	0.708921	0.468187
0	H	0.421315	0.673286	0.454186
0	O	0.299268	0.630158	0.416663
0	Fe	0.443993	0.732822	0.426521
0	C	0.361296	0.695588	0.414401
0	O	0.387102	0.693078	0.472204
0	O	0.313638	0.648639	0.44083
0	C	0.358504	0.69546	0.393872
0	O	0.371457	0.652824	0.485929
0	C	0.345515	0.702226	0.426662
0	H	0.297252	0.68126	0.44304
0	C	0.349336	0.716077	0.441466
0	H	0.392359	0.695152	0.410591
0	O	0.428852	0.701962	0.479144
0	C	0.332794	0.727518	0.449235
0	H	0.330642	0.698242	0.421738
0	C	0.401306	0.728289	0.431129
0	C	0.380509	0.700474	0.419889
0	C	0.301114	0.646513	0.425332
0	C	0.368165	0.722747	0.443621
0	O	0.441061	0.734875	0.456413
0	O	0.411811	0.663511	0.491427
0	H	0.37013	0.733812	0.455077
0	H	0.302822	0.734916	0.409214
0	H	0.406708	0.735873	0.377581
0	H	0.293526	0.626173	0.376037
0	H	0.364358	0.640727	0.481574
0	O	0.302696	0.699033	0.491305
0	O	0.316244	0.73843	0.493091
0	C	0.292046	0.740724	0.398693
0	C	0.344588	0.625218	0.375568
0	H	0.441376	0.667292	0.448332
0	C	0.303705	0.719295	0.372734
0	C	0.309016	0.621381	0.376643
0	O	0.449319	0.730051	0.397464
0	C	0.32561	0.633298	0.371709
0	C	0.444378	0.741305	0.382999
0	O	0.401104	0.743854	0.440653
0	H	0.357417	0.632123	0.371673
0	C	0.41651	0.623364	0.464587
0	H	0.397465	0.728435	0.491021
0	F	0.450097	0.707366	0.429509
0	O	0.402371	0.624753	0.476314
0	H	0.238788	0.754629	0.429857
0	H	0.229287	0.747836	0.447929
0	C	0.186939	0.746271	0.453293
0	C	0.126187	0.762992	0.452856
0	F	0.180081	0.828212	0.398093
0	O	0.173639	0.758994	0.455286
0	O	0.183933	0.789498	0.393274
0	C	0.197764	0.757913	0.401854
0	C	0.194783	0.759686	0.422135
0	C	0.193905	0.774246	0.387828
0	O	0.147266	0.806128	0.390479
0	H	0.191382	0.774123	0.42686
0	Fe	0.265572	0.754209	0.45386
0	O	0.236993	0.75878	0.443216
0	O	0.261895	0.777223	0.471482
0	H	0.256895	0.78801	0.464393
0	Fe	0.160014	0.768384	0.480014
0	O	0.168719	0.796731	0.474451
0	H	0.174403	0.797285	0.461688
0	H	0.178746	0.800294	0.483491
0	C	0.268327	0.765568	0.390792
0	C	0.13282	0.794647	0.386879
0	H	0.138338	0.791778	0.424553
0	H	0.260826	0.778064	0.396222
0	O	0.135871	0.775115	0.462893
0	O	0.274061	0.773357	0.433096
0	H	0.249239	0.826954	0.378981
0	C	0.126819	0.782572	0.420897
0	Fe	0.174415	0.811808	0.376965
0	O	0.121751	0.745594	0.458683
0	C	0.264526	0.757133	0.372375
0	O	0.285864	0.846542	0.379957
0	C	0.283139	0.757879	0.402787
0	O	0.200405	0.772578	0.370327
0	C	0.121231	0.783755	0.401563
0	O	0.128008	0.789549	0.369985
0	C	0.380277	0.869309	0.387255
0	H	0.365375	0.748124	0.375841
0	F	0.295631	0.868207	0.411146
0	C	0.447207	0.747749	0.48822
0	O	0.333764	0.745462	0.449932
0	C	0.379198	0.786549	0.373858
0	C	0.287696	0.767889	0.421154
0	H	0.297862	0.79997	0.449641
0	C	0.438499	0.749146	0.468492
0	O	0.437465	0.759958	0.424544
0	O	0.30534	0.766681	0.426495
0	O	0.319945	0.769926	0.483732
0	H	0.37108	0.786664	0.387687
0	O	0.391066	0.781884	0.454042
0	Fe	0.312619	0.767529	0.454845
0	O	0.327618	0.858604	0.39376
0	O	0.292292	0.749873	0.46269
0	O	0.293978	0.791191	0.460073
0	O	0.425019	0.798923	0.438136
0	O	0.40204	0.774857	0.410487
0	O	0.429963	0.765062	0.46387
0	C	0.437922	0.818314	0.473308
0	H	0.424791	0.808578	0.47488
0	Fe	0.415005	0.769989	0.437989
0	O	0.426787	0.792049	0.3976
0	C	0.343197	0.862043	0.384466
0	F	0.333876	0.78393	0.448322
0	H	0.39386	0.796345	0.454418
0	C	0.409697	0.784635	0.396204
0	H	0.299375	0.796269	0.472232
0	C	0.44245	0.803437	0.440272
0	H	0.380031	0.781193	0.444921
0	C	0.399513	0.785823	0.3761
0	C	0.445517	0.828024	0.489737
0	O	0.446851	0.759725	0.383634
0	C	0.361094	0.868166	0.395624
0	H	0.381724	0.865104	0.372329
0	C	0.448645	0.816636	0.455734
0	H	0.345563	0.747801	0.388322
0	O	0.350526	0.749817	0.374621
0	Fe	0.451464	0.777339	0.407048
0	O	0.275888	0.732922	0.496435
0	H	0.128917	0.624854	0.566046
0	H	0.199174	0.702133	0.50239
0	C	0.126321	0.720373	0.598074
0	C	0.222181	0.696224	0.617691
0	O	0.224402	0.677874	0.618282
0	O	0.206291	0.704405	0.613433
0	Fe	0.144579	0.625299	0.507588
0	O	0.266037	0.631652	0.539848
0	H	0.137206	0.72655	0.608502
0	O	0.169953	0.63958	0.51636
0	C	0.187815	0.635643	0.514539
0	O	0.154599	0.707391	0.505484
0	O	0.205162	0.648441	0.598276
0	C	0.20098	0.658691	0.583127
0	O	0.193754	0.676178	0.58449
0	O	0.155882	0.684737	0.594359
0	C	0.153445	0.7289	0.533503
0	C	0.17105	0.722529	0.541678
0	H	0.175195	0.707959	0.538672
0	H	0.251296	0.717158	0.600009
0	C	0.195351	0.652256	0.548007
0	C	0.207767	0.651744	0.564109
0	C	0.226408	0.644357	0.563221
0	C	0.201426	0.642376	0.530342
0	H	0.234578	0.64344	0.576481
0	H	0.18017	0.658111	0.549756
0	C	0.203488	0.726252	0.556277
0	O	0.206725	0.709	0.55074
0	O	0.186012	0.735142	0.507769
0	O	0.12745	0.722431	0.512563
0	C	0.140598	0.685203	0.604012
0	C	0.144457	0.717904	0.517387
0	O	0.179598	0.717174	0.587237
0	Fe	0.180532	0.69303	0.605355
0	H	0.185338	0.727843	0.59533
0	H	0.166018	0.722269	0.584562
0	C	0.233244	0.634727	0.546518
0	F	0.276682	0.629005	0.503118
0	O	0.131698	0.651723	0.515326
0	C	0.220115	0.633639	0.530524
0	H	0.228083	0.725827	0.573499
0	C	0.183834	0.734759	0.550824
0	C	0.251718	0.624106	0.547375
0	C	0.252875	0.716819	0.615777
0	C	0.125869	0.699457	0.59593
0	O	0.214496	0.734097	0.570772
0	O	0.191943	0.622448	0.502043
0	C	0.226217	0.744182	0.504412
0	H	0.138966	0.662032	0.508547
0	H	0.225023	0.62636	0.518164
0	F	0.37851	0.62063	0.51037
0	H	0.2943	0.698657	0.503117
0	C	0.397656	0.743394	0.613454
0	H	0.441873	0.622821	0.616062
0	H	0.316607	0.700429	0.497075
0	O	0.447677	0.660443	0.617476
0	Fe	0.405693	0.69082	0.496166
0	C	0.449811	0.686349	0.554283
0	O	0.448135	0.679965	0.50146
0	H	0.41448	0.723382	0.505115
0	Fe	0.394719	0.641398	0.500302
0	O	0.410853	0.710456	0.612469
0	O	0.400886	0.720303	0.502835
0	H	0.349305	0.727891	0.591415
0	C	0.441145	0.682704	0.518222
0	O	0.35286	0.717685	0.579326
0	C	0.360426	0.672283	0.536179
0	C	0.339606	0.690455	0.558981
0	F	0.413899	0.670803	0.599644
0	O	0.320643	0.708534	0.583262
0	C	0.356521	0.688973	0.547753
0	O	0.424069	0.687921	0.520461
0	C	0.325363	0.676236	0.555774
0	C	0.3374	0.705476	0.574939
0	O	0.31991	0.630205	0.557049
0	O	0.442604	0.693603	0.593014
0	O	0.305312	0.638016	0.529346
0	C	0.316726	0.642063	0.543892
0	C	0.346662	0.657944	0.53289
0	O	0.381812	0.685752	0.512907
0	C	0.377975	0.67174	0.524164
0	O	0.417509	0.62752	0.515061
0	H	0.312378	0.675273	0.564336
0	O	0.445478	0.639338	0.50394
0	H	0.368042	0.699218	0.549347
0	H	0.349736	0.646623	0.523148
0	C	0.32902	0.659436	0.543529
0	C	0.435855	0.627815	0.514518
0	O	0.387849	0.656435	0.524408
0	H	0.435062	0.692668	0.555979
0	Fe	0.428995	0.685041	0.615962
0	H	0.396716	0.740306	0.544127
0	O	0.382529	0.737371	0.537063
0	O	0.185561	0.765836	0.495496
0	F	0.159828	0.774573	0.617032
0	H	0.171391	0.867242	0.586332
0	O	0.126283	0.763885	0.604206
0	O	0.124338	0.806108	0.588176
0	O	0.284151	0.758764	0.618501
0	C	0.202831	0.866261	0.583574
0	C	0.246682	0.74726	0.506697
0	C	0.270465	0.748059	0.612741
0	H	0.142545	0.79244	0.500291
0	C	0.146531	0.747808	0.539126
0	C	0.193027	0.752281	0.506717
0	O	0.147784	0.839697	0.59761
0	O	0.15421	0.779038	0.578211
0	C	0.149422	0.778171	0.55996
0	O	0.260262	0.753159	0.598363
0	Fe	0.24649	0.779571	0.596762
0	C	0.235102	0.82139	0.589437
0	O	0.249848	0.824472	0.578018
0	O	0.271314	0.790527	0.591906
0	Fe	0.273888	0.808313	0.570094
0	O	0.239016	0.77331	0.568587
0	O	0.276938	0.829192	0.547416
0	O	0.258871	0.791096	0.550541
0	C	0.246232	0.778221	0.552149
0	C	0.177364	0.753905	0.55558
0	C	0.158342	0.760751	0.549804
0	H	0.187656	0.762823	0.563857
0	C	0.253206	0.759406	0.522077
0	C	0.239312	0.767838	0.534578
0	C	0.212613	0.75493	0.514745
0	C	0.219238	0.767004	0.529956
0	H	0.208732	0.773984	0.539854
0	H	0.268237	0.762967	0.524369
0	C	0.218476	0.835292	0.591759
0	C	0.219912	0.854663	0.586036
0	C	0.184363	0.858175	0.588714
0	Fe	0.142232	0.78954	0.603834
0	C	0.200475	0.827767	0.597
0	C	0.183506	0.838613	0.596128
0	C	0.163522	0.829589	0.599646
0	O	0.145958	0.778925	0.503981
0	O	0.232612	0.805102	0.597567
0	O	0.136153	0.789163	0.552001
0	H	0.132365	0.753127	0.533386
0	F	0.221678	0.7682	0.604363
0	O	0.162863	0.81153	0.604322
0	H	0.234183	0.85961	0.58284
0	H	0.199007	0.812368	0.600791
0	H	0.282595	0.821189	0.537263
0	H	0.122536	0.863117	0.615565
0	C	0.452555	0.827161	0.599654
0	O	0.404032	0.834843	0.54461
0	H	0.388011	0.785522	0.525672
0	C	0.401377	0.753263	0.596351
0	C	0.33714	0.761604	0.555403
0	C	0.44028	0.769691	0.537396
0	C	0.395613	0.868106	0.549568
0	H	0.339515	0.760172	0.570272
0	H	0.32845	0.76219	0.608412
0	H	0.391321	0.799604	0.608017
0	H	0.288342	0.83787	0.552972
0	H	0.394566	0.86455	0.518439
0	C	0.408922	0.783906	0.579335
0	C	0.319309	0.768032	0.549437
0	H	0.30774	0.860987	0.595397
0	C	0.317635	0.833801	0.607713
0	H	0.355488	0.746073	0.512063
0	C	0.369002	0.746098	0.54924
0	C	0.306252	0.82109	0.595704
0	C	0.444436	0.755214	0.522804
0	Fe	0.296795	0.781689	0.604219
0	O	0.425672	0.813267	0.515885
0	O	0.388492	0.800265	0.527879
0	O	0.289733	0.825818	0.588994
0	C	0.40794	0.850701	0.553779
0	O	0.312794	0.804388	0.592342
0	Fe	0.414691	0.806455	0.542982
0	O	0.445231	0.810408	0.596283
0	O	0.298497	0.79359	0.559981
0	C	0.315527	0.770259	0.529476
0	C	0.39162	0.783884	0.610068
0	C	0.305176	0.775836	0.563025
0	Fe	0.450437	0.792769	0.5718
0	O	0.302011	0.767254	0.579022
0	C	0.439444	0.759497	0.503177
0	C	0.351114	0.754816	0.541692
0	C	0.316579	0.854339	0.605926
0	C	0.346299	0.753656	0.52211
0	Fe	0.450405	0.838055	0.555015
0	O	0.423683	0.777585	0.537329
0	C	0.320611	0.755675	0.496147
0	C	0.327753	0.760997	0.51566
0	O	0.401474	0.797387	0.568879
0	H	0.301005	0.774283	0.524754
0	O	0.425994	0.778984	0.577546
0	O	0.438772	0.812533	0.556833
0	C	0.398623	0.77331	0.594434
0	H	0.408411	0.745811	0.584714
0	C	0.437487	0.826697	0.511063
0	O	0.424318	0.85309	0.562278
0	O	0.445318	0.837947	0.524521
0	H	0.428663	0.770354	0.500473
0	H	0.379602	0.801568	0.539193
0	O	0.374252	0.74829	0.567034
0	O	0.323667	0.772411	0.617076
0	H	0.40477	0.830269	0.617942
0	C	0.327863	0.866825	0.617814
0	O	0.265666	0.720306	0.722808
0	O	0.225546	0.714322	0.716514
0	O	0.199422	0.723776	0.732981
0	C	0.208743	0.711224	0.722781
0	O	0.249012	0.733324	0.688014
0	C	0.23948	0.73459	0.672701
0	O	0.146451	0.642416	0.720541
0	C	0.151481	0.659857	0.726158
0	O	0.177443	0.655284	0.660737
0	O	0.205867	0.668359	0.656393
0	C	0.191886	0.664582	0.667667
0	O	0.161769	0.690526	0.651654
0	C	0.162044	0.707441	0.643559
0	C	0.156153	0.72374	0.654279
0	C	0.235873	0.711269	0.646364
0	C	0.246526	0.725586	0.655092
0	H	0.224428	0.70437	0.653884
0	C	0.174168	0.66254	0.699549
0	C	0.200633	0.6866	0.696246
0	C	0.169343	0.669452	0.717838
0	C	0.19724	0.693418	0.715412
0	C	0.180205	0.68536	0.726089
0	C	0.190197	0.670412	0.688127
0	H	0.211332	0.693854	0.687192
0	C	0.260288	0.735954	0.644285
0	H	0.183237	0.726911	0.668395
0	C	0.168376	0.731257	0.667588
0	O	0.141041	0.669911	0.737645
0	H	0.176512	0.691303	0.739874
0	Fe	0.159843	0.663598	0.639196
0	O	0.136636	0.656276	0.65814
0	C	0.136782	0.729517	0.652026
0	H	0.277158	0.729214	0.723318
0	H	0.264417	0.715381	0.735636
0	H	0.164884	0.651466	0.692617
0	O	0.159107	0.634301	0.628759
0	F	0.228709	0.643047	0.63116
0	Fe	0.205996	0.656864	0.626276
0	H	0.127713	0.723266	0.64169
0	O	0.191478	0.632674	0.634164
0	C	0.174666	0.625208	0.634465
0	Fe	0.242906	0.739349	0.716551
0	H	0.12764	0.648005	0.65059
0	H	0.141024	0.645968	0.666916
0	C	0.129628	0.742859	0.665491
0	C	0.237703	0.707324	0.626295
0	O	0.181965	0.670685	0.622866
0	Fe	0.122363	0.623532	0.721744
0	C	0.161597	0.74393	0.681404
0	O	0.223752	0.743393	0.672104
0	O	0.166292	0.710423	0.625364
0	O	0.138948	0.676777	0.62071
0	C	0.263736	0.731829	0.624475
0	O	0.392245	0.638897	0.72865
0	Fe	0.435495	0.71586	0.653215
0	O	0.423647	0.734274	0.675823
0	C	0.395403	0.669589	0.687818
0	C	0.387953	0.655595	0.720695
0	C	0.398108	0.666626	0.66767
0	C	0.385111	0.65573	0.699247
0	O	0.414627	0.672888	0.638991
0	O	0.446367	0.699752	0.632981
0	O	0.421027	0.731977	0.634358
0	C	0.382743	0.634218	0.671449
0	H	0.394023	0.645597	0.645295
0	O	0.411327	0.697723	0.658119
0	O	0.384975	0.670786	0.730642
0	C	0.392144	0.648465	0.66029
0	C	0.409235	0.679742	0.654679
0	O	0.426607	0.678673	0.735202
0	H	0.401795	0.682439	0.694632
0	C	0.379531	0.638032	0.690819
0	H	0.426957	0.729032	0.689684
0	H	0.408885	0.731933	0.675895
0	O	0.396157	0.708716	0.741995
0	H	0.382449	0.712586	0.741776
0	H	0.372162	0.626186	0.698414
0	H	0.399691	0.708322	0.727628
0	C	0.410755	0.727555	0.619719
0	H	0.444147	0.692903	0.706554
0	C	0.443784	0.674027	0.738998
0	O	0.449269	0.699625	0.672859
0	H	0.121447	0.847322	0.6581
0	C	0.22183	0.868951	0.710477
0	H	0.26717	0.749371	0.649612
0	O	0.177521	0.749635	0.709651
0	C	0.141458	0.750449	0.681071
0	O	0.261536	0.763811	0.713605
0	O	0.246473	0.775036	0.686291
0	O	0.262561	0.848638	0.68526
0	C	0.260405	0.775377	0.698715
0	O	0.220194	0.756218	0.712134
0	Fe	0.217431	0.768857	0.686478
0	O	0.216003	0.78414	0.660556
0	O	0.188385	0.763529	0.683062
0	C	0.176242	0.753974	0.691961
0	Fe	0.198374	0.754714	0.730012
0	O	0.196399	0.785173	0.726754
0	C	0.207259	0.835402	0.710212
0	C	0.208407	0.854351	0.718766
0	C	0.202841	0.798562	0.715364
0	C	0.200857	0.819651	0.721337
0	C	0.202464	0.857015	0.737783
0	O	0.21132	0.794936	0.699998
0	H	0.211875	0.833737	0.69618
0	H	0.25795	0.811077	0.683706
0	H	0.203952	0.790353	0.659908
0	H	0.224872	0.795516	0.66149
0	C	0.195876	0.821987	0.740653
0	C	0.271641	0.808238	0.689035
0	C	0.276303	0.789365	0.696279
0	H	0.136419	0.761859	0.690789
0	O	0.131803	0.797735	0.630861
0	H	0.240739	0.792339	0.632163
0	O	0.238357	0.860106	0.654346
0	O	0.252729	0.785737	0.62694
0	C	0.280508	0.844073	0.688105
0	H	0.280265	0.807194	0.625815
0	O	0.227763	0.866341	0.693033
0	C	0.285604	0.823624	0.691952
0	H	0.224626	0.857016	0.657556
0	C	0.124028	0.813276	0.637318
0	H	0.238609	0.868852	0.642558
0	H	0.318566	0.765423	0.628858
0	H	0.346525	0.867354	0.642366
0	H	0.289719	0.791489	0.63967
0	O	0.292356	0.799724	0.62915
0	C	0.337772	0.858373	0.633602
0	C	0.329081	0.826135	0.622674
0	H	0.329739	0.810507	0.62448
0	H	0.387898	0.745667	0.64261
0	C	0.401706	0.819428	0.724688
0	F	0.346537	0.833474	0.707178
0	C	0.352967	0.831053	0.64934
0	C	0.293457	0.785472	0.705495
0	C	0.395464	0.786126	0.646567
0	C	0.389956	0.774714	0.628495
0	O	0.402758	0.802423	0.643526
0	H	0.312142	0.831816	0.706837
0	Fe	0.394018	0.828323	0.652932
0	C	0.303211	0.819125	0.702441
0	H	0.362598	0.794615	0.736402
0	H	0.389567	0.781548	0.718694
0	Fe	0.405274	0.795426	0.688477
0	O	0.2931	0.857378	0.687396
0	O	0.428314	0.803737	0.672634
0	O	0.383215	0.820299	0.719755
0	C	0.432481	0.820691	0.665398
0	O	0.385294	0.855994	0.661674
0	O	0.419656	0.833916	0.664131
0	C	0.30662	0.800076	0.709691
0	O	0.367232	0.822284	0.64179
0	O	0.352772	0.798558	0.693929
0	H	0.340501	0.798207	0.686593
0	H	0.296704	0.7713	0.710955
0	C	0.319667	0.797052	0.726754
0	H	0.412945	0.760443	0.700076
0	O	0.388457	0.816265	0.678591
0	C	0.388912	0.753499	0.628758
0	O	0.351396	0.835089	0.668194
0	O	0.422152	0.7713	0.698463
0	Fe	0.366859	0.82557	0.693586
0	O	0.329316	0.810347	0.733821
0	C	0.33868	0.838236	0.635905
0	O	0.395895	0.779429	0.664414
0	O	0.379388	0.852278	0.693553
0	O	0.318215	0.781268	0.737248
0	H	0.428268	0.768048	0.686446
0	O	0.383564	0.782438	0.705011
0	H	0.383124	0.76827	0.701007
0	O	0.413737	0.812269	0.712294
0	O	0.402028	0.841658	0.626443
0	H	0.437181	0.809313	0.629688
0	H	0.338753	0.845176	0.738178
0	C	0.384019	0.863005	0.679083
0	C	0.450148	0.822986	0.654018
0	C	0.447537	0.819932	0.634093
0	H	0.438989	0.819331	0.742018
0	O	0.351653	0.841195	0.742887
0	H	0.390323	0.848567	0.621998
0	O	0.151233	0.73907	0.868398
0	C	0.121251	0.683866	0.838636
0	H	0.172546	0.622963	0.773789
0	O	0.119569	0.669777	0.77516
0	H	0.160815	0.621111	0.853703
0	O	0.262936	0.62132	0.793533
0	O	0.21979	0.622174	0.785423
0	H	0.247356	0.6687	0.852763
0	C	0.122657	0.680556	0.818133
0	O	0.23266	0.627351	0.824726
0	Fe	0.239718	0.639795	0.800155
0	O	0.217929	0.660816	0.80433
0	C	0.211219	0.670465	0.81862
0	O	0.213489	0.664989	0.836429
0	Fe	0.226534	0.640651	0.850148
0	O	0.25931	0.658891	0.814385
0	O	0.252242	0.655594	0.849659
0	F	0.2459	0.653725	0.775891
0	C	0.176819	0.734889	0.835426
0	C	0.187679	0.687606	0.796473
0	C	0.172626	0.718422	0.80372
0	C	0.199817	0.688802	0.813561
0	C	0.183159	0.719436	0.820541
0	C	0.196454	0.704281	0.826226
0	C	0.174011	0.702288	0.791604
0	H	0.203155	0.704097	0.840509
0	H	0.190227	0.675079	0.786687
0	H	0.259681	0.670869	0.806605
0	O	0.155759	0.714235	0.764889
0	C	0.160697	0.699263	0.774456
0	O	0.199275	0.627475	0.851203
0	H	0.161177	0.728673	0.800732
0	C	0.13287	0.700249	0.848863
0	O	0.134797	0.71626	0.838899
0	O	0.15523	0.681477	0.768137
0	H	0.1604	0.67193	0.778921
0	H	0.134713	0.686032	0.808699
0	H	0.258736	0.651187	0.861775
0	O	0.185889	0.738204	0.851504
0	Fe	0.13519	0.744248	0.846696
0	O	0.13834	0.698827	0.867161
0	O	0.448897	0.666687	0.755371
0	H	0.449226	0.718702	0.768401
0	H	0.431637	0.63123	0.806688
0	O	0.438417	0.62817	0.75795
0	O	0.355101	0.676848	0.863438
0	C	0.354134	0.732979	0.850751
0	O	0.421842	0.631358	0.79547
0	C	0.349603	0.635987	0.81472
0	Fe	0.434268	0.649743	0.776245
0	Fe	0.389459	0.634603	0.757735
0	C	0.349335	0.644185	0.795429
0	C	0.35752	0.662536	0.792011
0	H	0.390797	0.639732	0.793655
0	C	0.373729	0.735196	0.860129
0	C	0.426695	0.734715	0.841276
0	O	0.41907	0.694528	0.772294
0	C	0.428462	0.690496	0.787032
0	O	0.372849	0.695009	0.841576
0	O	0.429958	0.673574	0.793592
0	C	0.433991	0.730629	0.821824
0	C	0.357457	0.674679	0.808197
0	C	0.368249	0.667114	0.773307
0	O	0.419799	0.721165	0.851774
0	C	0.360728	0.681199	0.844178
0	O	0.408586	0.654431	0.762851
0	H	0.362219	0.689177	0.806222
0	Fe	0.402743	0.680429	0.752928
0	C	0.355668	0.668466	0.827411
0	H	0.35038	0.643039	0.845272
0	H	0.427577	0.700137	0.823379
0	C	0.437957	0.707462	0.795901
0	H	0.347528	0.63404	0.784186
0	O	0.367895	0.654265	0.760004
0	O	0.379372	0.681834	0.772498
0	C	0.35168	0.648717	0.830648
0	C	0.434639	0.711157	0.815511
0	O	0.384302	0.62881	0.786645
0	C	0.352966	0.735351	0.830542
0	C	0.337513	0.736587	0.862046
0	C	0.44553	0.721938	0.783919
0	H	0.365625	0.734846	0.822585
0	C	0.31944	0.744306	0.854088
0	C	0.443309	0.741131	0.789025
0	C	0.336393	0.744016	0.82214
0	H	0.199378	0.776166	0.860471
0	C	0.172556	0.82725	0.868338
0	H	0.248545	0.868043	0.762897
0	O	0.244758	0.745427	0.745972
0	F	0.178423	0.754951	0.748065
0	C	0.147176	0.804557	0.862896
0	O	0.161495	0.745126	0.830948
0	F	0.121199	0.749804	0.823824
0	C	0.261769	0.862702	0.768308
0	C	0.160359	0.843016	0.866224
0	H	0.254773	0.756976	0.852188
0	H	0.244339	0.776173	0.861409
0	O	0.128362	0.864043	0.83635
0	H	0.194066	0.808942	0.749235
0	H	0.124164	0.816421	0.845898
0	O	0.189622	0.858452	0.777369
0	H	0.166454	0.857362	0.865122
0	C	0.195622	0.841148	0.748204
0	O	0.245406	0.850468	0.815869
0	C	0.261676	0.851944	0.786141
0	C	0.244738	0.85354	0.797453
0	O	0.20549	0.846162	0.814986
0	O	0.195242	0.827216	0.779606
0	C	0.19355	0.842544	0.76965
0	O	0.21736	0.759969	0.752738
0	O	0.208203	0.802823	0.807779
0	O	0.232145	0.814314	0.826445
0	C	0.259189	0.790488	0.803997
0	C	0.230682	0.775417	0.788423
0	C	0.271312	0.779681	0.792098
0	C	0.242807	0.764496	0.775473
0	C	0.262879	0.76659	0.778167
0	C	0.238784	0.787589	0.803042
0	C	0.234762	0.75572	0.756978
0	C	0.225889	0.802499	0.81296
0	Fe	0.187386	0.824952	0.80739
0	O	0.166319	0.804186	0.799602
0	O	0.179336	0.821084	0.835897
0	O	0.165558	0.844737	0.804966
0	Fe	0.223719	0.841841	0.835507
0	H	0.158584	0.842434	0.817201
0	H	0.265982	0.799659	0.815024
0	H	0.214975	0.775208	0.787141
0	H	0.272409	0.758181	0.769622
0	H	0.153426	0.807475	0.806239
0	H	0.164035	0.807375	0.785468
0	H	0.157178	0.839306	0.793825
0	C	0.279641	0.843319	0.793031
0	H	0.279149	0.833695	0.8049
0	O	0.164503	0.776832	0.851871
0	C	0.14782	0.785054	0.854437
0	C	0.186788	0.82587	0.852404
0	C	0.135409	0.820428	0.855838
0	F	0.242599	0.837195	0.853982
0	O	0.133318	0.774057	0.854586
0	O	0.203219	0.833067	0.855282
0	C	0.131579	0.860384	0.854259
0	C	0.141127	0.840931	0.860389
0	O	0.229752	0.860862	0.788975
0	O	0.246341	0.762408	0.862907
0	C	0.277501	0.852763	0.865089
0	C	0.278408	0.865261	0.758091
0	C	0.281936	0.832632	0.866736
0	C	0.393704	0.850433	0.858475
0	H	0.340349	0.850828	0.835196
0	H	0.308154	0.860698	0.7563
0	O	0.427357	0.752387	0.846807
0	C	0.426973	0.819454	0.753126
0	C	0.290373	0.866168	0.854557
0	O	0.322098	0.826526	0.79816
0	O	0.367209	0.805899	0.800202
0	C	0.394089	0.821716	0.779287
0	C	0.305459	0.754672	0.867181
0	C	0.393205	0.826972	0.759337
0	H	0.432727	0.763559	0.747111
0	C	0.413134	0.815795	0.786646
0	C	0.295532	0.857722	0.765112
0	H	0.389263	0.852379	0.830022
0	H	0.347436	0.810353	0.836805
0	C	0.407976	0.822842	0.745812
0	O	0.439684	0.774437	0.778345
0	H	0.308634	0.757778	0.828426
0	C	0.319686	0.748178	0.833961
0	C	0.439355	0.745868	0.808669
0	O	0.368528	0.801544	0.747366
0	H	0.352963	0.851081	0.753626
0	C	0.313479	0.832989	0.782519
0	H	0.353935	0.748067	0.763311
0	H	0.324638	0.811883	0.835671
0	O	0.383587	0.749891	0.855939
0	Fe	0.324781	0.769713	0.763528
0	C	0.429613	0.818012	0.77416
0	O	0.335089	0.802996	0.832503
0	O	0.391973	0.840497	0.841064
0	C	0.338285	0.756675	0.804773
0	H	0.38069	0.833433	0.754849
0	F	0.311574	0.747882	0.753677
0	H	0.414544	0.811464	0.801111
0	O	0.327396	0.755152	0.789433
0	H	0.439133	0.761108	0.813417
0	O	0.320789	0.83038	0.765484
0	H	0.372281	0.791771	0.756809
0	F	0.402551	0.783231	0.846628
0	O	0.330138	0.860802	0.83422
0	O	0.351182	0.759041	0.753982
0	C	0.441418	0.756593	0.773974
0	O	0.359857	0.828773	0.781859
0	O	0.298702	0.778931	0.772191
0	O	0.347716	0.772643	0.807619
0	C	0.293121	0.783405	0.789227
0	H	0.292545	0.825748	0.85833
0	C	0.451468	0.817419	0.781248
0	Fe	0.344458	0.81677	0.757919
0	O	0.305618	0.789255	0.802456
0	C	0.296561	0.845811	0.781798
0	Fe	0.335426	0.79856	0.801214
0	C	0.373374	0.81838	0.788062
0	O	0.337748	0.793125	0.773476
0	O	0.289095	0.86869	0.836349
0	Fe	0.408262	0.764917	0.865472
0	H	0.391865	0.812574	0.864337
0	O	0.396305	0.868299	0.857597
0	O	0.43957	0.751083	0.754343
0	H	0.426517	0.796712	0.868874
0	O	0.287958	0.749127	0.868534
0	H	0.338749	0.847334	0.867693
0	C	0.254791	0.724909	0.907824
0	F	0.271413	0.735552	0.953889
0	O	0.202435	0.709563	0.97905
0	O	0.228303	0.7282	0.970986
0	C	0.215323	0.716012	0.966087
0	O	0.15733	0.648156	0.977794
0	C	0.155132	0.639935	0.96173
0	Fe	0.145056	0.719817	0.887976
0	O	0.186401	0.739311	0.893047
0	O	0.139511	0.699789	0.909455
0	O	0.17373	0.710071	0.889521
0	C	0.187077	0.720846	0.896119
0	C	0.222199	0.712306	0.902578
0	C	0.199823	0.713428	0.931324
0	C	0.237582	0.713655	0.914921
0	C	0.215911	0.710455	0.944309
0	C	0.234944	0.711169	0.935505
0	C	0.202359	0.713442	0.910042
0	H	0.185418	0.713182	0.937309
0	H	0.246707	0.709656	0.946181
0	H	0.223725	0.715725	0.887873
0	C	0.135757	0.641932	0.953675
0	O	0.252404	0.736263	0.893345
0	H	0.147806	0.688243	0.907668
0	O	0.150672	0.740992	0.907668
0	H	0.145923	0.705175	0.920931
0	C	0.132967	0.635487	0.935113
0	O	0.270023	0.72493	0.91802
0	F	0.281797	0.667808	0.938308
0	O	0.278162	0.636022	0.961335
0	O	0.124507	0.707597	0.989268
0	O	0.194953	0.628193	0.978796
0	H	0.128207	0.708083	0.949163
0	H	0.144285	0.628985	0.925862
0	O	0.166606	0.625961	0.956136
0	H	0.269702	0.630516	0.887508
0	O	0.219138	0.654384	0.876898
0	H	0.183953	0.670434	0.99042
0	H	0.165713	0.711676	0.985306
0	H	0.231473	0.653932	0.885126
0	H	0.211735	0.644275	0.884291
0	H	0.133269	0.743867	0.935949
0	H	0.130911	0.695127	0.994167
0	H	0.124609	0.68608	0.950348
0	C	0.12011	0.647379	0.965891
0	H	0.282387	0.692759	0.985965
0	H	0.124924	0.743679	0.991978
0	O	0.119663	0.698817	0.955805
0	H	0.237135	0.62215	0.959039
0	H	0.123132	0.650884	0.9815
0	C	0.276902	0.620208	0.969908
0	O	0.36132	0.620937	0.953563
0	O	0.358531	0.621616	0.910961
0	C	0.363543	0.623387	0.971418
0	O	0.320382	0.633336	0.951746
0	O	0.43763	0.630339	0.952009
0	O	0.321003	0.632998	0.910781
0	O	0.437876	0.71475	0.889709
0	H	0.373187	0.684841	0.919978
0	Fe	0.409346	0.717718	0.879923
0	H	0.346994	0.719713	0.982876
0	C	0.363693	0.696629	0.925617
0	C	0.330196	0.705466	0.930958
0	Fe	0.340116	0.627284	0.932388
0	C	0.337724	0.670308	0.930864
0	H	0.3314	0.736976	0.982838
0	O	0.311118	0.643108	0.99097
0	O	0.427306	0.660528	0.978353
0	O	0.345314	0.733998	0.986556
0	O	0.349548	0.655798	0.934041
0	C	0.303085	0.628186	0.909394
0	C	0.335424	0.725163	0.930951
0	O	0.432541	0.729296	0.918671
0	H	0.315093	0.701553	0.934368
0	C	0.36879	0.716577	0.924326
0	O	0.31906	0.667192	0.930068
0	O	0.290664	0.635115	0.921887
0	O	0.305856	0.667292	0.969898
0	C	0.354994	0.730559	0.928609
0	Fe	0.299117	0.650655	0.945452
0	C	0.344721	0.690858	0.929782
0	C	0.387453	0.724178	0.917119
0	F	0.430144	0.66587	0.938535
0	O	0.398747	0.712567	0.907387
0	C	0.306672	0.661163	0.987398
0	C	0.443869	0.721381	0.906437
0	O	0.349241	0.62662	0.982436
0	O	0.304125	0.737205	0.933577
0	C	0.320284	0.739741	0.925764
0	O	0.407984	0.688515	0.873978
0	H	0.391039	0.737227	0.976757
0	O	0.391764	0.741807	0.919883
0	H	0.340051	0.738234	0.877576
0	O	0.377798	0.742955	0.97739
0	H	0.401147	0.631133	0.956455
0	O	0.37991	0.721178	0.870979
0	Fe	0.448853	0.658016	0.957359
0	H	0.360397	0.688617	0.872107
0	C	0.40021	0.622345	0.970144
0	C	0.38295	0.619914	0.980436
0	H	0.413643	0.681392	0.885691
0	H	0.3665	0.634407	0.908987
0	H	0.393496	0.686532	0.8754
0	O	0.121362	0.828871	0.916735
0	C	0.164508	0.809873	0.872523
0	H	0.168667	0.761405	0.96067
0	C	0.262964	0.860752	0.8777
0	H	0.254731	0.769571	0.978506
0	O	0.193999	0.750516	0.983641
0	O	0.198723	0.84253	0.962689
0	O	0.201069	0.839048	0.930623
0	C	0.202234	0.832047	0.947494
0	O	0.245051	0.778143	0.904134
0	O	0.250758	0.761323	0.931523
0	C	0.240991	0.773699	0.921983
0	Fe	0.265544	0.76329	0.885889
0	C	0.206126	0.765412	0.98161
0	O	0.259061	0.755963	0.979516
0	H	0.271671	0.756618	0.986631
0	O	0.158754	0.769108	0.893213
0	C	0.150531	0.759966	0.907149
0	H	0.144705	0.79981	0.913816
0	C	0.261086	0.830889	0.89641
0	H	0.254114	0.821499	0.907677
0	C	0.219137	0.801174	0.933378
0	C	0.200868	0.798538	0.963931
0	C	0.223772	0.781172	0.933647
0	C	0.205014	0.778224	0.964303
0	C	0.216196	0.770279	0.949008
0	C	0.20739	0.810496	0.948268
0	H	0.192765	0.804144	0.97669
0	H	0.221749	0.755274	0.948858
0	H	0.224473	0.81049	0.921785
0	C	0.148366	0.775524	0.976501
0	O	0.154317	0.758187	0.96775
0	O	0.157029	0.791478	0.972365
0	H	0.174189	0.798275	0.878668
0	C	0.135425	0.790451	0.922108
0	C	0.139276	0.770219	0.921924
0	Fe	0.277803	0.749278	0.932288
0	C	0.254695	0.849773	0.892657
0	C	0.273792	0.822407	0.8828
0	C	0.242164	0.859412	0.905926
0	O	0.181765	0.855388	0.897196
0	O	0.224435	0.859839	0.903566
0	O	0.234489	0.861337	0.973818
0	C	0.269013	0.861431	0.979496
0	O	0.276232	0.788779	0.875878
0	C	0.129183	0.758874	0.934101
0	O	0.197573	0.772558	0.874419
0	Fe	0.173081	0.755514	0.872192
0	C	0.281868	0.802853	0.886575
0	O	0.283984	0.762874	0.907833
0	O	0.22206	0.766091	0.991554
0	H	0.208396	0.764484	0.878244
0	C	0.130822	0.77594	0.989434
0	O	0.286041	0.7717	0.950752
0	O	0.249357	0.86772	0.921157
0	C	0.251487	0.868898	0.969251
0	C	0.268771	0.844572	0.990876
0	H	0.131074	0.807171	0.990407
0	H	0.255584	0.836865	0.992974
0	Fe	0.199214	0.866076	0.919143
0	H	0.1687	0.859172	0.903289
0	H	0.184564	0.865884	0.887666
0	H	0.448814	0.764237	0.896527
0	H	0.337428	0.854153	0.91806
0	H	0.358696	0.746313	0.927057
0	H	0.440357	0.783175	0.907249
0	H	0.417699	0.777694	0.941993
0	O	0.412431	0.74617	0.886063
0	O	0.312674	0.769282	0.876414
0	O	0.329754	0.863402	0.926944
0	H	0.433384	0.762049	0.94588
0	C	0.391931	0.840083	0.877631
0	C	0.343732	0.834928	0.975351
0	C	0.30058	0.783195	0.949392
0	C	0.394058	0.787483	0.896319
0	C	0.393385	0.819208	0.913454
0	O	0.334678	0.791391	0.901076
0	H	0.316252	0.820174	0.950706
0	Fe	0.416772	0.754174	0.91379
0	Fe	0.308451	0.776856	0.905948
0	F	0.385558	0.783041	0.981343
0	C	0.310537	0.783619	0.983543
0	C	0.318526	0.812074	0.964229
0	H	0.394915	0.810961	0.92694
0	C	0.393891	0.850221	0.895911
0	H	0.336463	0.802796	0.910444
0	C	0.391872	0.809184	0.895474
0	O	0.388402	0.776303	0.882209
0	C	0.391943	0.819928	0.877627
0	C	0.330784	0.818507	0.978778
0	C	0.387369	0.850697	0.931108
0	O	0.293545	0.800936	0.900286
0	O	0.32449	0.753812	0.913928
0	O	0.419933	0.764054	0.94177
0	H	0.3059	0.768473	0.982265
0	O	0.31017	0.785786	0.933814
0	C	0.393749	0.840086	0.913933
0	H	0.332752	0.798927	0.88872
0	O	0.369632	0.855244	0.930383
0	O	0.403975	0.780554	0.91005
0	C	0.440271	0.842893	0.989621
0	H	0.43451	0.840745	0.97589
0	O	0.355099	0.840813	0.9892
0	C	0.307632	0.794625	0.96687
0	O	0.341992	0.84341	0.95913
0	O	0.35226	0.771408	0.992742
0	O	0.399823	0.856562	0.944035
0	C	0.303186	0.866758	0.986983
0	O	0.339779	0.86088	0.874349
0	O	0.442481	0.769474	0.908944
0	O	0.429429	0.78366	0.874864
0	H	0.328885	0.860843	0.883972
0	F	0.45137	0.799664	0.93852
0	H	0.31905	0.855372	0.932318
0	H	0.393494	0.865488	0.895601
0	C	0.410257	0.861029	0.993677
0	Fe	0.350156	0.869253	0.947676
0	O	0.164792	0.722596	0.99467
0	C	0.178311	0.622223	0.0336525
0	C	0.263442	0.7334	0.11077
0	O	0.228137	0.621968	0.0863368
0	H	0.253155	0.673111	0.105691
0	H	0.199323	0.657814	0.000508872
0	H	0.156524	0.717425	0.00547002
0	Fe	0.171816	0.635054	0.997665
0	C	0.126497	0.633629	0.0448201
0	O	0.256241	0.718043	0.00102159
0	O	0.186122	0.661696	0.00157142
0	O	0.255425	0.719484	0.0324368
0	C	0.262835	0.712766	0.0168061
0	Fe	0.226116	0.72429	0.0393567
0	O	0.198841	0.729127	0.0475882
0	O	0.218874	0.730254	0.0119796
0	Fe	0.192777	0.726218	0.00297776
0	O	0.220851	0.695926	0.0347293
0	O	0.191119	0.699821	0.022113
0	C	0.203559	0.689596	0.0324452
0	F	0.231561	0.71922	0.0650427
0	O	0.242743	0.649676	0.0786983
0	C	0.227877	0.638834	0.0778391
0	Fe	0.267594	0.642435	0.0914323
0	O	0.149985	0.642648	0.0183142
0	C	0.183764	0.658391	0.0408807
0	C	0.212807	0.6645	0.0588389
0	C	0.182521	0.638708	0.0477172
0	C	0.210987	0.646162	0.0669712
0	C	0.199455	0.670928	0.0445584
0	H	0.225244	0.673709	0.0621898
0	H	0.171776	0.664497	0.0335458
0	O	0.266956	0.668084	0.107597
0	H	0.269062	0.691687	0.0477969
0	C	0.277445	0.696985	0.0177717
0	C	0.194968	0.633728	0.0624787
0	C	0.135425	0.632435	0.0247796
0	O	0.279879	0.659338	0.0683204
0	C	0.279489	0.688082	0.0357417
0	O	0.254025	0.628659	0.116301
0	O	0.249716	0.73366	0.0959524
0	O	0.281511	0.639076	0.0434734
0	C	0.283208	0.65577	0.0504459
0	Fe	0.238691	0.741992	0.996472
0	O	0.187956	0.622107	0.0186604
0	C	0.190192	0.744441	0.0421651
0	H	0.178012	0.744003	0.0778804
0	H	0.23345	0.707456	0.118745
0	H	0.431685	0.706237	0.999727
0	H	0.342327	0.620154	0.0754533
0	C	0.427725	0.66509	0.997187
0	H	0.39605	0.691915	0.995772
0	C	0.441428	0.718477	0.996207
0	C	0.286281	0.688535	0.00118444
0	C	0.435759	0.737088	0.00143047
0	C	0.290044	0.671148	0.0376764
0	H	0.306946	0.731783	0.0164761
0	H	0.317373	0.713659	0.0274056
0	C	0.327347	0.630672	0.102352
0	O	0.422053	0.650694	0.0646687
0	C	0.381757	0.684391	0.0238895
0	C	0.410132	0.65543	0.0262294
0	C	0.300654	0.673256	0.00411726
0	C	0.409947	0.666243	0.00905318
0	O	0.357652	0.707463	0.0164737
0	Fe	0.344354	0.734225	0.0162976
0	H	0.372399	0.674754	0.0521176
0	C	0.395475	0.681892	0.00836738
0	O	0.408144	0.732094	0.0212184
0	C	0.308207	0.631761	0.0930204
0	C	0.397972	0.659486	0.0419746
0	O	0.376513	0.71321	0.0412408
0	O	0.307557	0.62903	0.0744237
0	H	0.399677	0.656111	0.0896918
0	O	0.405837	0.73285	0.0626081
0	H	0.31301	0.652872	0.0245132
0	C	0.382702	0.672507	0.0397492
0	C	0.303232	0.665845	0.0229545
0	O	0.316485	0.720941	0.0146595
0	O	0.340913	0.734191	0.0463993
0	O	0.391068	0.655738	0.0771197
0	C	0.404217	0.654553	0.0618767
0	O	0.293215	0.636347	0.104095
0	C	0.371839	0.702958	0.0267797
0	H	0.420664	0.643755	0.0277921
0	Fe	0.386514	0.740769	0.0407679
0	O	0.44358	0.666988	0.00673937
0	C	0.415929	0.742393	0.0082938
0	H	0.398008	0.726754	0.0741466
0	C	0.343711	0.622456	0.0914361
0	C	0.348395	0.744136	0.0602918
0	H	0.119961	0.808959	0.0879939
0	O	0.250326	0.799873	0.116394
0	H	0.206155	0.856625	0.00126768
0	H	0.1488	0.850753	0.00356095
0	H	0.25165	0.746302	0.088428
0	C	0.120994	0.758951	0.995921
0	O	0.200849	0.869137	0.997263
0	O	0.276915	0.745739	0.110792
0	O	0.184706	0.746035	0.0247752
0	O	0.121863	0.851281	0.049308
0	H	0.186343	0.867957	0.996715
0	C	0.123375	0.794362	0.99521
0	H	0.238729	0.754672	0.0588869
0	C	0.124991	0.839312	0.0810364
0	C	0.126348	0.822855	0.0930288
0	O	0.141575	0.789821	0.114285
0	O	0.23286	0.752335	0.0459389
0	H	0.265476	0.7535	0.0169915
0	O	0.231757	0.814289	0.0529919
0	O	0.244158	0.795372	0.076486
0	C	0.230663	0.799889	0.0646155
0	Fe	0.251927	0.83637	0.0488991
0	O	0.270079	0.826648	0.0677803
0	Fe	0.260666	0.813663	0.0910821
0	O	0.237564	0.831384	0.0954271
0	C	0.233429	0.847605	0.0882973
0	O	0.265275	0.822744	0.0260201
0	O	0.146274	0.856211	0.0166483
0	O	0.250955	0.756779	0.018596
0	C	0.203277	0.777114	0.0504142
0	C	0.186277	0.757992	0.0748234
0	C	0.212179	0.788114	0.0657154
0	C	0.191911	0.771182	0.089892
0	C	0.204337	0.786286	0.0851139
0	C	0.190849	0.761462	0.055489
0	H	0.211258	0.797122	0.0948232
0	H	0.209606	0.777622	0.0356151
0	H	0.251524	0.770512	0.0142181
0	F	0.234801	0.848004	0.0306473
0	O	0.239339	0.852396	0.0715786
0	C	0.184542	0.767537	0.109215
0	F	0.131969	0.75042	0.105312
0	C	0.134985	0.823817	0.111569
0	C	0.132304	0.856876	0.088291
0	O	0.276417	0.832365	0.108316
0	C	0.13713	0.859175	0.108233
0	O	0.169135	0.757558	0.109673
0	O	0.26886	0.861603	0.0433988
0	C	0.223363	0.862903	0.100259
0	C	0.281721	0.829746	0.0212279
0	C	0.284361	0.841122	0.00305383
0	O	0.284184	0.794558	0.0893468
0	C	0.28308	0.869137	0.052366
0	H	0.258652	0.787872	0.11947
0	C	0.38548	0.798221	0.0703468
0	C	0.381342	0.813639	0.0834648
0	H	0.387011	0.826142	0.029189
0	C	0.296562	0.789644	0.0768494
0	C	0.448088	0.752455	0.996738
0	H	0.401583	0.761345	0.110419
0	H	0.443446	0.767111	0.000722371
0	C	0.324226	0.789304	0.997423
0	Fe	0.297523	0.829606	0.0637836
0	C	0.333234	0.80752	0.995906
0	O	0.389776	0.798142	0.112005
0	H	0.314043	0.761223	0.0536509
0	C	0.388079	0.784956	0.0365476
0	C	0.293781	0.837244	0.106833
0	H	0.410731	0.745315	0.0677031
0	C	0.387077	0.837814	0.0583615
0	O	0.370482	0.746287	0.0182719
0	H	0.357406	0.747754	0.0980982
0	O	0.359838	0.861981	0.0255327
0	H	0.424891	0.864785	0.0874197
0	Fe	0.365267	0.868197	0.995472
0	C	0.452242	0.843851	0.0283085
0	H	0.313886	0.849169	0.0102745
0	H	0.425894	0.860297	0.0338792
0	H	0.330455	0.844603	0.0526849
0	O	0.294541	0.859955	0.064273
0	C	0.388178	0.821872	0.0441341
0	C	0.333641	0.766177	0.10783
0	H	0.38453	0.783872	0.0762762
0	O	0.395899	0.769246	0.0428882
0	C	0.391442	0.858534	0.0544767
0	O	0.332441	0.76137	0.0169077
0	O	0.393395	0.855256	0.999263
0	O	0.305099	0.831639	0.0932378
0	O	0.327538	0.831993	0.0593336
0	C	0.428019	0.852698	0.00312402
0	O	0.295683	0.830824	0.033355
0	C	0.315584	0.774668	0.102214
0	C	0.387311	0.802438	0.0501245
0	C	0.337096	0.773467	0.00363853
0	C	0.380999	0.832136	0.0766882
0	H	0.309891	0.784557	0.11273
0	O	0.366068	0.749226	0.059539
0	O	0.301198	0.800123	0.0628445
0	O	0.393368	0.864278	0.0376417
0	O	0.408406	0.758395	0.00181805
0	C	0.378751	0.809991	0.103568
0	C	0.342796	0.753925	0.0945368
0	H	0.331933	0.820947	0.0511414
0	Fe	0.379918	0.764511	0.998712
0	C	0.435422	0.854009	0.0226044
0	C	0.301844	0.851231	0.999936
0	H	0.37859	0.842986	0.0882184
0	O	0.380383	0.786109	0.0198066
0	C	0.309859	0.774272	0.0826357
0	H	0.342142	0.812906	0.00783935
0	H	0.348594	0.852049	0.0239906
0	C	0.335258	0.752056	0.0756455
0	O	0.36359	0.817515	0.111155
0	C	0.317663	0.760902	0.0695131
0	C	0.313685	0.866351	0.112401
0	H	0.317087	0.866098	0.0968068
0	Fe	0.26965	0.908039	0.197883
0	O	0.24804	0.891355	0.192672
0	O	0.2635	0.923275	0.174835
0	O	0.231685	0.929935	0.176735
0	C	0.248501	0.932622	0.168808
0	C	0.239644	0.95579	0.139574
0	C	0.252794	0.947382	0.15274
0	O	0.2212	0.895116	0.160576
0	Fe	0.221362	0.903336	0.1887
0	O	0.193447	0.915018	0.185403
0	O	0.252433	0.923046	0.217169
0	O	0.22102	0.912728	0.216943
0	C	0.237665	0.91493	0.22564
0	H	0.223903	0.95443	0.140501
0	H	0.204881	0.906177	0.132541
0	H	0.188361	0.912651	0.199094
0	H	0.184741	0.906436	0.178022
0	O	0.136167	0.927377	0.138262
0	O	0.146263	0.899891	0.169424
0	H	0.144119	0.88711	0.174114
0	C	0.140136	0.964035	0.137346
0	C	0.273418	0.949829	0.148003
0	C	0.142678	0.973187	0.155804
0	C	0.128354	0.944987	0.138225
0	H	0.156279	0.898223	0.159035
0	O	0.135689	0.881898	0.134709
0	C	0.209917	0.894584	0.123547
0	H	0.139861	0.964693	0.168097
0	H	0.244546	0.878957	0.229003
0	C	0.225001	0.878866	0.15421
0	C	0.279976	0.958741	0.131195
0	O	0.151133	0.992053	0.214643
0	Fe	0.122171	0.903471	0.151014
0	C	0.245529	0.964975	0.121816
0	C	0.219384	0.877612	0.132861
0	C	0.144068	0.993883	0.157596
0	C	0.241348	0.884501	0.24265
0	C	0.180509	0.978434	0.244076
0	C	0.280024	0.874944	0.228343
0	O	0.206103	0.876372	0.195315
0	C	0.13764	0.979014	0.122209
0	O	0.278349	0.892832	0.222873
0	H	0.284396	0.94457	0.157603
0	C	0.285567	0.876994	0.168584
0	O	0.120294	0.992903	0.240115
0	H	0.287681	0.940816	0.200786
0	H	0.302268	0.924159	0.192823
0	C	0.300932	0.956401	0.124713
0	C	0.384372	0.914478	0.15829
0	O	0.336468	0.910597	0.127585
0	C	0.404523	0.883433	0.225352
0	F	0.343899	0.936782	0.157444
0	C	0.378167	0.884368	0.174567
0	O	0.326845	0.929637	0.220495
0	H	0.325163	0.943862	0.220904
0	F	0.424919	0.936603	0.20827
0	Fe	0.403251	0.928584	0.224875
0	C	0.376685	0.960896	0.23043
0	O	0.364378	0.949802	0.222172
0	C	0.348416	0.983774	0.127421
0	H	0.388805	0.930199	0.160058
0	H	0.31753	0.924906	0.230838
0	C	0.376549	0.885881	0.137584
0	Fe	0.35514	0.922875	0.230433
0	O	0.346739	0.967755	0.135875
0	O	0.361153	0.91	0.204527
0	O	0.287745	0.89229	0.17894
0	Fe	0.341806	0.940108	0.129961
0	C	0.376235	0.914377	0.19406
0	O	0.292045	0.927508	0.203057
0	O	0.394869	0.95602	0.230825
0	O	0.370842	0.935854	0.127065
0	C	0.380848	0.906012	0.13976
0	C	0.379912	0.904311	0.175382
0	O	0.312786	0.944483	0.133061
0	O	0.388807	0.927121	0.199596
0	C	0.375594	0.91875	0.123612
0	O	0.411382	0.899584	0.220173
0	H	0.310961	0.899681	0.150461
0	C	0.30883	0.885808	0.141975
0	O	0.390641	0.881089	0.237387
0	H	0.373368	0.87821	0.124499
0	C	0.317482	0.883486	0.123224
0	O	0.342978	0.897223	0.236937
0	H	0.333801	0.99221	0.161472
0	H	0.42198	0.872972	0.189521
0	H	0.37628	0.87642	0.187972
0	H	0.316519	0.872771	0.228463
0	O	0.380966	0.917731	0.240225
0	C	0.375315	0.874644	0.155983
0	C	0.369062	0.977719	0.241864
0	H	0.396434	0.993775	0.242787
0	H	0.338856	0.967624	0.241865
0	C	0.312626	0.871946	0.243736
0	C	0.297016	0.871974	0.150374
0	C	0.181322	0.994577	0.232015
0	C	0.187705	0.112707	0.155257
0	Fe	0.120289	0.997186	0.211855
0	O	0.128473	0.0553004	0.186357
0	O	0.148494	0.0169268	0.18271
0	Fe	0.146476	0.0386125	0.203831
0	O	0.149463	0.0591008	0.225099
0	O	0.171372	0.0510385	0.191623
0	O	0.162998	0.0211162	0.220236
0	C	0.197959	0.0064973	0.232811
0	C	0.164091	0.00299819	0.221675
0	F	0.225732	0.0617984	0.217408
0	O	0.258667	0.0407272	0.228255
0	H	0.199102	0.0192887	0.223492
0	H	0.177965	0.042006	0.181288
0	H	0.180414	0.0520767	0.202678
0	H	0.142525	0.0904966	0.198993
0	O	0.254867	0.0828559	0.234964
0	H	0.247593	0.091408	0.225676
0	C	0.149013	0.00425461	0.14227
0	C	0.130067	0.098178	0.192818
0	C	0.276713	0.0419263	0.232585
0	C	0.137113	0.00411071	0.174982
0	H	0.153856	0.0195885	0.143004
0	O	0.274387	0.109678	0.182281
0	C	0.142389	0.998895	0.124577
0	C	0.124629	0.11438	0.20299
0	O	0.123685	0.0258241	0.214958
0	H	0.182448	0.0674929	0.242133
0	O	0.127874	0.0309358	0.12406
0	H	0.165683	0.085501	0.138145
0	C	0.143089	0.0607966	0.242385
0	C	0.165996	0.0989061	0.129871
0	C	0.27798	0.101811	0.199046
0	O	0.277153	0.112281	0.214977
0	Fe	0.238214	0.0591185	0.241559
0	H	0.195839	0.0969093	0.177521
0	O	0.184606	0.09658	0.167194
0	C	0.283497	0.0805741	0.199107
0	H	0.284621	0.075557	0.166879
0	C	0.285381	0.0692427	0.181542
0	O	0.121131	0.99892	0.182653
0	C	0.176605	0.11473	0.137066
0	C	0.314946	0.11609	0.134152
0	H	0.377663	0.0100412	0.122036
0	C	0.44884	0.101305	0.242755
0	H	0.287612	0.0784324	0.230506
0	O	0.334993	0.00136692	0.198443
0	O	0.306539	0.0243063	0.164315
0	O	0.293685	0.0494289	0.145331
0	C	0.344968	0.110218	0.208159
0	H	0.293745	0.0242758	0.201468
0	C	0.289282	0.050377	0.217458
0	C	0.288463	0.0709825	0.216887
0	C	0.292501	0.0400203	0.200741
0	H	0.302273	0.042412	0.134814
0	C	0.291981	0.0494155	0.182726
0	C	0.297223	0.0402786	0.163477
0	O	0.394554	0.0442642	0.124421
0	C	0.34336	0.0166679	0.192031
0	C	0.369938	0.0124244	0.135393
0	C	0.354207	0.000455042	0.139526
0	C	0.344959	0.00243956	0.157686
0	Fe	0.416372	0.074108	0.155702
0	O	0.397541	0.0876609	0.174076
0	C	0.368345	0.0266349	0.166926
0	C	0.363707	0.0829081	0.219653
0	C	0.331408	0.104414	0.134234
0	H	0.339877	0.0303067	0.217108
0	H	0.431086	0.030046	0.228695
0	C	0.368239	0.0941905	0.187061
0	H	0.374869	0.0340704	0.178625
0	C	0.355714	0.10914	0.190803
0	H	0.340427	0.104233	0.14707
0	O	0.376347	0.104184	0.156128
0	C	0.381013	0.0952296	0.171082
0	O	0.421965	0.0404183	0.223441
0	C	0.351096	0.0165092	0.171799
0	H	0.343201	0.0979648	0.237996
0	O	0.34699	0.0318708	0.203809
0	C	0.376472	0.0260379	0.148406
0	H	0.409964	0.0338554	0.21899
0	C	0.348645	0.0968476	0.223103
0	O	0.43541	0.0595847	0.137352
0	O	0.430946	0.0607881	0.1797
0	O	0.42286	0.0799208	0.237358
0	O	0.396839	0.0525767	0.156122
0	H	0.384956	0.0720177	0.200727
0	O	0.402441	0.0860411	0.1337
0	O	0.435695	0.0967076	0.157333
0	C	0.389834	0.0417451	0.142181
0	C	0.371162	0.0803869	0.201244
0	C	0.376772	0.0768992	0.236068
0	O	0.385988	0.0606622	0.236489
0	Fe	0.393821	0.112503	0.134767
0	C	0.429477	0.113422	0.161924
0	H	0.439478	0.0495826	0.175491
0	H	0.420555	0.0531889	0.186765
0	H	0.167071	0.970376	0.246305
0	O	0.124851	0.87027	0.276094
0	H	0.146702	0.962427	0.353998
0	C	0.239871	0.903851	0.244542
0	C	0.12394	0.989649	0.312753
0	C	0.126324	0.979936	0.279482
0	H	0.129027	0.987141	0.327754
0	H	0.164195	0.87803	0.352762
0	C	0.151861	0.875887	0.343567
0	O	0.146924	0.94625	0.295964
0	O	0.155126	0.965891	0.319926
0	C	0.144602	0.962054	0.30547
0	Fe	0.171264	0.928614	0.291974
0	O	0.186481	0.941339	0.312132
0	O	0.155522	0.914825	0.269915
0	O	0.193485	0.910724	0.282365
0	O	0.217383	0.9159	0.304196
0	C	0.210845	0.90772	0.289146
0	Fe	0.215128	0.944455	0.310111
0	F	0.242764	0.946702	0.305036
0	O	0.213329	0.9726	0.316968
0	C	0.204133	0.980938	0.330311
0	O	0.178626	0.949779	0.272883
0	O	0.210689	0.953695	0.281338
0	C	0.212849	0.986284	0.25684
0	C	0.196443	0.974068	0.256567
0	C	0.195401	0.957513	0.27104
0	O	0.164356	0.906459	0.311677
0	C	0.155982	0.908796	0.328331
0	H	0.22482	0.984768	0.266728
0	H	0.145413	0.907027	0.276585
0	H	0.149604	0.924555	0.261587
0	C	0.230361	0.91153	0.260985
0	C	0.224395	0.899266	0.275689
0	H	0.227618	0.927005	0.261595
0	C	0.130127	0.976615	0.299386
0	C	0.144351	0.892446	0.334184
0	O	0.154693	0.925244	0.336475
0	Fe	0.173744	0.948635	0.335526
0	O	0.220481	0.935854	0.337904
0	O	0.189992	0.972268	0.339651
0	C	0.129682	0.890653	0.320354
0	H	0.232422	0.900112	0.349847
0	O	0.267111	0.891075	0.352505
0	C	0.210067	0.931331	0.351677
0	O	0.191783	0.93268	0.351984
0	C	0.228581	0.878949	0.275112
0	O	0.158281	0.957073	0.361038
0	H	0.130689	0.970289	0.268661
0	C	0.232184	0.907141	0.36469
0	H	0.123935	0.902915	0.313401
0	O	0.283765	0.92491	0.332546
0	H	0.272787	0.922625	0.323561
0	H	0.271453	0.874284	0.271531
0	C	0.220238	0.922774	0.36746
0	C	0.126207	0.873236	0.311639
0	H	0.166137	0.968171	0.366349
0	C	0.238884	0.871685	0.258645
0	H	0.224091	0.86983	0.286656
0	C	0.29893	0.871184	0.306337
0	C	0.32597	0.877194	0.258177
0	C	0.286756	0.873304	0.267641
0	O	0.388218	0.988592	0.367571
0	C	0.29237	0.871156	0.24689
0	C	0.447135	0.914625	0.284969
0	C	0.349577	0.977442	0.248996
0	H	0.396553	0.885294	0.291906
0	H	0.295135	0.930382	0.325098
0	O	0.422088	0.929876	0.246466
0	O	0.305501	0.875651	0.356028
0	O	0.313147	0.9733	0.266674
0	C	0.427409	0.915721	0.255913
0	H	0.382725	0.931259	0.277513
0	C	0.353662	0.911767	0.32689
0	H	0.375853	0.891698	0.331782
0	O	0.41474	0.897338	0.334881
0	O	0.340936	0.970254	0.341538
0	C	0.348818	0.932025	0.325443
0	H	0.370131	0.915741	0.288537
0	C	0.336962	0.898404	0.330576
0	H	0.434159	0.92173	0.292108
0	C	0.387762	0.921019	0.330603
0	O	0.320771	0.907063	0.335872
0	H	0.335252	0.930439	0.257758
0	C	0.357086	0.966496	0.333324
0	O	0.369019	0.97972	0.330736
0	H	0.333951	0.937199	0.325178
0	O	0.338394	0.879904	0.329175
0	O	0.445921	0.904485	0.361672
0	Fe	0.386083	0.898759	0.260334
0	O	0.301521	0.987134	0.334106
0	O	0.348972	0.93407	0.256691
0	C	0.408358	0.914865	0.336718
0	O	0.357407	0.890146	0.264737
0	C	0.373095	0.906678	0.328687
0	O	0.292463	0.886802	0.314901
0	C	0.36293	0.946072	0.328742
0	Fe	0.438033	0.881643	0.347058
0	Fe	0.446605	0.930469	0.349124
0	O	0.415726	0.902485	0.26027
0	C	0.38257	0.940846	0.330452
0	C	0.343512	0.888364	0.252714
0	O	0.418296	0.928137	0.344439
0	Fe	0.294993	0.898885	0.34336
0	O	0.383172	0.917975	0.283511
0	H	0.392952	0.951636	0.335074
0	C	0.446081	0.914179	0.265002
0	C	0.324686	0.986055	0.27365
0	C	0.343825	0.9899	0.263632
0	H	0.302601	0.972763	0.331531
0	O	0.447231	0.957297	0.334871
0	C	0.38139	0.993019	0.247622
0	H	0.292299	0.987915	0.344865
0	O	0.417662	0.873959	0.367914
0	H	0.305686	0.993664	0.295234
0	O	0.392894	0.87792	0.279787
0	C	0.301154	0.871856	0.283205
0	H	0.380337	0.871205	0.282687
0	H	0.33203	0.875652	0.288434
0	C	0.320491	0.874729	0.277674
0	O	0.45216	0.918853	0.322834
0	O	0.298915	0.914651	0.368875
0	C	0.212977	0.00288367	0.245788
0	H	0.286031	0.00268482	0.265485
0	H	0.267967	0.995321	0.278512
0	C	0.226646	0.117054	0.328687
0	O	0.121037	0.0189119	0.337101
0	O	0.221214	0.0362438	0.247148
0	O	0.282632	0.0375345	0.249689
0	C	0.227573	0.0189341	0.248721
0	O	0.127835	0.052087	0.247616
0	H	0.184386	0.00453555	0.354337
0	O	0.23162	0.106468	0.342921
0	F	0.169098	0.0964875	0.36336
0	Fe	0.131985	0.0346507	0.36091
0	O	0.216726	0.0772515	0.252973
0	H	0.235789	0.00260437	0.318644
0	O	0.219558	0.076168	0.284887
0	C	0.178583	0.0774108	0.290378
0	C	0.175758	0.0715524	0.255889
0	C	0.187419	0.0761603	0.272352
0	C	0.155292	0.070558	0.257272
0	C	0.209192	0.0759812	0.270006
0	O	0.158704	0.0785303	0.326551
0	C	0.148543	0.0790662	0.311195
0	C	0.14681	0.0750066	0.275406
0	C	0.157934	0.0788216	0.291978
0	O	0.130015	0.0786679	0.3122
0	Fe	0.250115	0.0751378	0.286136
0	O	0.250931	0.0556138	0.266157
0	O	0.250188	0.0933305	0.308051
0	O	0.1594	0.0298083	0.349696
0	C	0.208175	0.0407806	0.330799
0	O	0.244435	0.054994	0.308253
0	O	0.243134	0.0264981	0.293501
0	C	0.237681	0.0378456	0.30693
0	C	0.224232	0.0105344	0.324951
0	C	0.223349	0.0304522	0.321187
0	O	0.244957	0.0148834	0.253634
0	O	0.130477	0.0599449	0.348281
0	H	0.208939	0.0563782	0.327971
0	H	0.18809	0.0769864	0.303182
0	H	0.132036	0.0731241	0.277013
0	O	0.251506	0.0974216	0.265656
0	H	0.241183	0.107118	0.268502
0	H	0.260878	0.0887576	0.317273
0	Fe	0.263872	0.0307827	0.271455
0	C	0.208908	0.00087188	0.33564
0	C	0.193521	0.0317222	0.343369
0	Fe	0.150619	0.078224	0.355105
0	C	0.174415	0.0409595	0.350457
0	C	0.195323	0.0121161	0.345468
0	O	0.133536	0.102039	0.348588
0	H	0.25405	0.10565	0.302698
0	O	0.17347	0.057548	0.358822
0	H	0.264285	0.104008	0.268594
0	O	0.278184	0.00527034	0.277036
0	O	0.281632	0.0748231	0.286392
0	O	0.283082	0.0428901	0.290272
0	O	0.286071	0.0943278	0.365064
0	H	0.209346	0.113453	0.290325
0	C	0.200416	0.117518	0.302892
0	C	0.206686	0.11479	0.32264
0	C	0.193643	0.119106	0.337313
0	O	0.381003	0.0906949	0.247305
0	C	0.356794	0.00406317	0.270253
0	Fe	0.376872	0.00459539	0.345688
0	Fe	0.328803	0.99665	0.346415
0	O	0.315499	0.021805	0.349246
0	C	0.311548	0.026831	0.36626
0	H	0.402118	0.0314358	0.358792
0	O	0.387781	0.030354	0.359221
0	Fe	0.402609	0.0529823	0.295924
0	C	0.289383	0.0536527	0.365967
0	O	0.365211	0.0231631	0.326341
0	O	0.319136	0.999158	0.288541
0	C	0.347584	0.0221498	0.321423
0	O	0.407669	0.0998318	0.300399
0	H	0.309485	0.0284897	0.307809
0	C	0.346098	0.0580106	0.321999
0	C	0.418553	0.0900919	0.312199
0	O	0.382943	0.0337812	0.282802
0	Fe	0.412396	0.0545605	0.248721
0	C	0.440783	0.0383794	0.276794
0	C	0.291099	0.0596496	0.291531
0	H	0.347269	0.0488002	0.367323
0	O	0.403851	0.0681129	0.272255
0	O	0.421435	0.071659	0.309778
0	C	0.345641	0.0717259	0.307299
0	C	0.429018	0.094616	0.246758
0	O	0.438811	0.0477624	0.260668
0	H	0.358677	0.0580572	0.331797
0	C	0.432239	0.100748	0.324997
0	O	0.338957	0.00588271	0.320028
0	O	0.352814	0.00645576	0.358738
0	O	0.426464	0.0354468	0.288119
0	H	0.326438	0.0873343	0.288105
0	H	0.298976	0.0634378	0.358121
0	C	0.365012	0.0782456	0.300149
0	O	0.402154	0.0280901	0.257739
0	H	0.413857	0.0324086	0.320444
0	Fe	0.394371	0.0942202	0.273287
0	O	0.419572	0.102638	0.260884
0	C	0.4455	0.0903622	0.336934
0	C	0.327692	0.0738077	0.297327
0	H	0.443178	0.0749774	0.338176
0	C	0.318332	0.041853	0.308638
0	F	0.399447	0.00260398	0.331964
0	H	0.316109	0.111153	0.335881
0	O	0.379729	0.0687145	0.307396
0	H	0.351086	0.0142467	0.280931
0	C	0.375126	0.00651456	0.262035
0	C	0.386634	0.0242682	0.26754
0	C	0.337053	0.0408667	0.317663
0	H	0.403409	0.0487567	0.330117
0	C	0.311808	0.0595855	0.299834
0	O	0.367506	0.0880465	0.284808
0	O	0.400569	0.0381347	0.321192
0	O	0.303774	0.119439	0.33492
0	O	0.253933	0.983335	0.440377
0	O	0.240399	0.952436	0.466703
0	O	0.218247	0.96234	0.445211
0	O	0.152484	0.966608	0.466099
0	C	0.18863	0.950481	0.470048
0	C	0.207807	0.945835	0.474888
0	C	0.174697	0.947004	0.484179
0	C	0.156888	0.958712	0.4823
0	C	0.223285	0.953214	0.461269
0	O	0.147425	0.984667	0.430525
0	Fe	0.230529	0.983716	0.426162
0	O	0.205835	0.98217	0.409393
0	O	0.251199	0.93973	0.427782
0	O	0.240511	0.962202	0.406973
0	C	0.243126	0.944594	0.411272
0	H	0.185416	0.95944	0.457799
0	C	0.249127	0.913572	0.394301
0	C	0.237665	0.929561	0.397429
0	H	0.261769	0.912329	0.403075
0	Fe	0.13505	0.989184	0.456583
0	C	0.221955	0.933698	0.384173
0	H	0.213903	0.947075	0.384553
0	Fe	0.264163	0.957598	0.449568
0	C	0.269004	0.984118	0.483857
0	O	0.276329	0.969757	0.474353
0	F	0.275116	0.933565	0.458498
0	O	0.275094	0.886108	0.383144
0	C	0.246471	0.902497	0.377828
0	H	0.193931	0.978581	0.417135
0	O	0.123234	0.99343	0.482509
0	H	0.157695	0.994166	0.427585
0	H	0.136689	0.987013	0.420482
0	C	0.212529	0.935703	0.493283
0	H	0.283205	0.965978	0.418717
0	C	0.263188	0.891961	0.370515
0	O	0.287864	0.961391	0.431371
0	C	0.320848	0.926656	0.415947
0	F	0.357724	0.985567	0.477928
0	H	0.335609	0.972669	0.424191
0	H	0.386018	0.990928	0.423405
0	C	0.394755	0.884646	0.41513
0	C	0.433014	0.940682	0.389343
0	C	0.328944	0.980688	0.387215
0	O	0.404334	0.944145	0.457066
0	C	0.377782	0.88423	0.425475
0	C	0.309703	0.912245	0.384367
0	O	0.368881	0.930131	0.47597
0	C	0.335899	0.939253	0.446398
0	O	0.390092	0.906978	0.449449
0	H	0.421116	0.937559	0.426848
0	C	0.401276	0.982252	0.399236
0	C	0.421751	0.954418	0.400466
0	C	0.395073	0.956672	0.447673
0	Fe	0.348106	0.910289	0.474731
0	O	0.341115	0.953662	0.457391
0	C	0.394324	0.978485	0.417832
0	C	0.402623	0.963107	0.428582
0	O	0.43319	0.92325	0.395274
0	O	0.36299	0.891288	0.456969
0	O	0.431845	0.883048	0.395841
0	C	0.377285	0.894059	0.445502
0	Fe	0.363415	0.958224	0.477077
0	C	0.315566	0.928954	0.396185
0	C	0.415158	0.970942	0.390704
0	H	0.320162	0.91227	0.421984
0	C	0.323939	0.96244	0.397831
0	C	0.328265	0.960772	0.417998
0	O	0.325905	0.888948	0.47677
0	O	0.315198	0.895795	0.389311
0	Fe	0.396176	0.921282	0.475914
0	O	0.37906	0.963953	0.453119
0	C	0.327006	0.942905	0.427233
0	O	0.338312	0.921588	0.450374
0	C	0.316436	0.946773	0.387316
0	O	0.424636	0.910884	0.476802
0	O	0.343914	0.99004	0.393341
0	C	0.416636	0.950521	0.419777
0	H	0.420842	0.975256	0.376757
0	C	0.416816	0.876713	0.386729
0	H	0.329904	0.877878	0.468628
0	H	0.407361	0.891456	0.421748
0	H	0.428613	0.980491	0.47952
0	H	0.314471	0.895197	0.470289
0	H	0.431681	0.923338	0.479575
0	O	0.4407	0.9471	0.373741
0	H	0.426678	0.90633	0.463262
0	H	0.312173	0.949168	0.372745
0	O	0.318661	0.985867	0.372074
0	O	0.330222	0.928197	0.490919
0	O	0.435474	0.990084	0.489842
0	O	0.291518	0.99402	0.44571
0	C	0.360387	0.875184	0.415695
0	C	0.397314	0.87571	0.397303
0	Fe	0.301123	0.871193	0.385179
0	H	0.347369	0.872509	0.424445
0	H	0.147902	0.00706288	0.380794
0	H	0.202899	0.996447	0.405666
0	O	0.261513	0.9992	0.475338
0	C	0.255749	0.0189029	0.406523
0	O	0.241245	0.00730709	0.405992
0	O	0.240868	0.023946	0.450385
0	C	0.214744	0.0479128	0.469844
0	C	0.20827	0.0332169	0.456677
0	C	0.223306	0.0203373	0.448928
0	C	0.156332	0.0243263	0.472739
0	C	0.188608	0.02813	0.45723
0	C	0.175784	0.0339906	0.472192
0	O	0.156367	0.00755803	0.464896
0	O	0.217742	0.00417215	0.44282
0	H	0.230331	0.0526544	0.469381
0	H	0.185425	0.0155396	0.448195
0	O	0.142652	0.047377	0.385509
0	O	0.138649	0.0786714	0.382817
0	C	0.134996	0.0628214	0.391355
0	C	0.202828	0.0523217	0.486151
0	C	0.182707	0.0468696	0.486318
0	O	0.141799	0.0315583	0.482175
0	H	0.133636	0.035029	0.419041
0	C	0.259009	0.0520565	0.38581
0	O	0.268726	0.0180548	0.420129
0	H	0.247693	0.0596768	0.391635
0	Fe	0.265561	0.00803122	0.447972
0	C	0.262465	0.0311068	0.389275
0	O	0.13518	0.0078912	0.374806
0	O	0.21924	0.110884	0.382083
0	C	0.278899	0.0227105	0.380328
0	O	0.265068	0.106813	0.451776
0	H	0.243294	0.111406	0.478768
0	H	0.28394	0.00792597	0.384049
0	O	0.279186	0.0332237	0.457441
0	C	0.27194	0.0630051	0.373035
0	O	0.254317	0.0920055	0.373359
0	H	0.285863	0.0393034	0.445321
0	C	0.121488	0.0617185	0.408568
0	O	0.120933	0.0121703	0.444381
0	C	0.121722	0.0450143	0.420313
0	C	0.27096	0.0844856	0.370638
0	H	0.217736	0.0965083	0.382709
0	H	0.12571	0.00866863	0.385817
0	H	0.271757	0.103918	0.43724
0	C	0.277593	0.117193	0.463589
0	H	0.219105	0.116545	0.395443
0	H	0.299134	0.997002	0.456936
0	O	0.295129	0.119071	0.458491
0	F	0.318019	0.116173	0.371478
0	C	0.389694	0.994553	0.385354
0	C	0.448048	0.0427905	0.448885
0	H	0.290996	0.0283754	0.463713
0	C	0.437258	0.0257495	0.455582
0	H	0.299183	0.999242	0.434737
0	O	0.358428	0.0448318	0.376059
0	O	0.379156	0.00864424	0.392216
0	O	0.323242	0.02447	0.380403
0	O	0.445635	0.111318	0.450139
0	H	0.359826	0.0536878	0.388135
0	O	0.423233	0.027447	0.470312
0	H	0.344287	0.0162145	0.421324
0	Fe	0.351313	0.0163308	0.385051
0	H	0.361664	0.0312329	0.418529
0	H	0.414322	0.0144605	0.470594
0	O	0.349037	0.0276129	0.413445
0	H	0.437175	0.0621516	0.473281
0	O	0.411631	0.112564	0.478131
0	O	0.44097	0.00843453	0.44918
0	C	0.445861	0.0606359	0.459083
0	C	0.449975	0.0958484	0.460741
0	O	0.448029	0.0963275	0.479237
0	C	0.29268	0.0341382	0.370265
0	H	0.122642	0.938977	0.514823
0	C	0.122908	0.993764	0.597688
0	O	0.146446	0.961762	0.496788
0	H	0.227509	0.933078	0.497119
0	O	0.217113	0.914402	0.531274
0	O	0.189856	0.929461	0.540729
0	C	0.178339	0.938023	0.502353
0	C	0.197226	0.93111	0.506901
0	C	0.202171	0.924417	0.527135
0	Fe	0.235333	0.915262	0.556841
0	O	0.217404	0.93131	0.571373
0	O	0.2544	0.896627	0.543406
0	Fe	0.189585	0.926665	0.571784
0	O	0.159085	0.922986	0.57264
0	O	0.255646	0.917303	0.580048
0	Fe	0.227577	0.954451	0.584805
0	O	0.210865	0.972722	0.568134
0	C	0.192634	0.971117	0.565219
0	O	0.182654	0.956474	0.570905
0	O	0.245891	0.940028	0.542715
0	O	0.250896	0.959802	0.567005
0	C	0.270516	0.984119	0.505256
0	C	0.259094	0.971231	0.535974
0	C	0.263783	0.967746	0.516139
0	C	0.252143	0.955833	0.54925
0	O	0.222705	0.891068	0.569879
0	O	0.191127	0.897069	0.57146
0	C	0.205349	0.885755	0.57337
0	H	0.158812	0.974049	0.545507
0	H	0.261185	0.953875	0.50943
0	H	0.165708	0.936	0.513287
0	H	0.262219	0.906362	0.535849
0	H	0.155178	0.930523	0.560824
0	H	0.154456	0.909607	0.570619
0	H	0.249828	0.887037	0.532994
0	C	0.164078	0.987875	0.549252
0	C	0.181101	0.989451	0.560678
0	C	0.255527	0.924754	0.597188
0	O	0.131002	0.98584	0.523814
0	O	0.191834	0.925335	0.602286
0	F	0.236179	0.97617	0.598843
0	O	0.206557	0.95338	0.605463
0	O	0.243778	0.938121	0.602567
0	C	0.272047	0.920631	0.610224
0	C	0.200245	0.937872	0.613317
0	C	0.256742	0.990978	0.543064
0	H	0.250314	0.994145	0.55676
0	C	0.452402	0.980777	0.495282
0	C	0.388983	0.872345	0.531087
0	O	0.289996	0.905563	0.571503
0	H	0.288383	0.94493	0.597703
0	H	0.290791	0.943372	0.568584
0	C	0.288313	0.932719	0.607292
0	O	0.297977	0.980703	0.573471
0	O	0.389199	0.897708	0.49498
0	O	0.386432	0.965518	0.49756
0	H	0.390059	0.874862	0.580447
0	Fe	0.390147	0.931023	0.613531
0	C	0.37479	0.896778	0.506413
0	O	0.354682	0.981313	0.588281
0	C	0.399289	0.955102	0.506147
0	H	0.314979	0.973693	0.519189
0	C	0.37437	0.894434	0.562724
0	O	0.402847	0.93716	0.500906
0	C	0.332582	0.941977	0.503044
0	C	0.311192	0.959755	0.52622
0	O	0.404087	0.945064	0.591172
0	O	0.346357	0.954948	0.501688
0	Fe	0.355451	0.951822	0.584212
0	C	0.370333	0.909406	0.578739
0	H	0.347076	0.969148	0.551284
0	C	0.30316	0.924656	0.545923
0	O	0.357213	0.922345	0.575533
0	O	0.380616	0.955569	0.57067
0	H	0.321326	0.912197	0.52272
0	C	0.412574	0.954864	0.558924
0	C	0.298113	0.942591	0.55472
0	H	0.33253	0.884996	0.584467
0	C	0.300815	0.97925	0.555106
0	C	0.423689	0.971753	0.561341
0	C	0.302505	0.960396	0.544976
0	H	0.359396	0.911235	0.539187
0	C	0.408163	0.962503	0.524993
0	C	0.368322	0.898457	0.542328
0	O	0.342606	0.956813	0.556785
0	C	0.315353	0.9253	0.528837
0	C	0.39844	0.951445	0.574415
0	O	0.368037	0.947808	0.609698
0	C	0.406502	0.949562	0.540477
0	C	0.386814	0.878742	0.565543
0	H	0.428348	0.975599	0.576521
0	C	0.416074	0.981111	0.528768
0	H	0.399132	0.935423	0.538692
0	C	0.319299	0.942333	0.519666
0	O	0.327801	0.946388	0.598024
0	C	0.299749	0.906228	0.555828
0	C	0.424319	0.985319	0.546918
0	H	0.348074	0.947216	0.547715
0	O	0.326463	0.895519	0.594427
0	O	0.382425	0.91053	0.59286
0	O	0.358005	0.901663	0.500944
0	C	0.37661	0.888405	0.526732
0	O	0.304133	0.888895	0.546217
0	C	0.330517	0.88814	0.613121
0	H	0.41644	0.992792	0.516844
0	C	0.322733	0.941654	0.615914
0	H	0.421283	0.988428	0.614226
0	H	0.303649	0.876908	0.556114
0	C	0.348337	0.991643	0.601613
0	F	0.410599	0.915585	0.617678
0	O	0.342055	0.982792	0.615836
0	C	0.121852	0.00232255	0.577558
0	H	0.127843	0.023354	0.558528
0	C	0.239031	0.113645	0.607972
0	C	0.131942	0.00281551	0.612997
0	F	0.267777	0.0647027	0.497499
0	H	0.172821	0.0501066	0.498579
0	C	0.261463	0.110247	0.580373
0	O	0.13019	0.0194919	0.573174
0	H	0.178111	0.0960642	0.551364
0	H	0.14073	0.0149261	0.608674
0	H	0.182665	0.102561	0.529009
0	O	0.206701	0.0745803	0.513033
0	O	0.22934	0.0516836	0.50646
0	C	0.212909	0.0594404	0.503079
0	Fe	0.211802	0.082922	0.542153
0	O	0.235015	0.066663	0.542992
0	C	0.156559	0.00453609	0.540456
0	C	0.167195	0.0229294	0.541899
0	C	0.139076	0.00250712	0.525993
0	O	0.194752	0.0574931	0.54693
0	O	0.21058	0.0408336	0.570278
0	C	0.196732	0.0421486	0.557685
0	C	0.189771	0.00720855	0.564463
0	C	0.183663	0.0243226	0.554771
0	O	0.241442	0.0268542	0.54764
0	O	0.264097	0.0398427	0.528498
0	C	0.263805	0.00626659	0.53214
0	C	0.25667	0.0257064	0.536883
0	Fe	0.240343	0.0495874	0.565698
0	O	0.269365	0.0570612	0.562717
0	O	0.240156	0.0727175	0.583775
0	Fe	0.2516	0.0655605	0.520228
0	O	0.239557	0.0905716	0.508354
0	H	0.164625	0.0354713	0.533079
0	H	0.203157	0.00676008	0.573439
0	H	0.276653	0.0476526	0.57065
0	O	0.133241	0.0168021	0.516713
0	H	0.246437	0.0380027	0.600816
0	O	0.273496	0.0808579	0.53328
0	C	0.237497	0.106656	0.516971
0	C	0.272344	0.00317135	0.513298
0	H	0.237827	0.0201477	0.588305
0	C	0.232809	0.089207	0.581874
0	O	0.247808	0.0309716	0.588897
0	O	0.188241	0.101179	0.542611
0	O	0.217581	0.0924741	0.570697
0	O	0.228422	0.107093	0.533376
0	C	0.244079	0.104979	0.590179
0	H	0.274118	0.0161438	0.504244
0	H	0.266925	0.102177	0.568057
0	H	0.272601	0.0930545	0.525736
0	H	0.224735	0.111032	0.613591
0	H	0.286479	0.0874119	0.614423
0	H	0.326865	0.0944661	0.541428
0	O	0.319248	0.098761	0.55304
0	H	0.38445	0.116689	0.505692
0	H	0.449724	0.0173242	0.511514
0	Fe	0.434723	0.116393	0.495402
0	H	0.364876	0.0689836	0.599367
0	O	0.39942	0.0441722	0.596585
0	O	0.447324	0.0164728	0.603742
0	H	0.287229	0.0760606	0.530452
0	C	0.349841	0.0139648	0.600874
0	O	0.446194	0.00730863	0.564778
0	O	0.423051	0.0923082	0.511408
0	O	0.427747	0.0760391	0.55405
0	H	0.43857	0.116183	0.54521
0	C	0.418591	0.0872055	0.56644
0	O	0.304039	0.996097	0.544925
0	O	0.448454	0.0425856	0.536371
0	H	0.3059	0.0966419	0.549918
0	O	0.419121	0.017871	0.549322
0	C	0.394834	0.113526	0.570044
0	H	0.305634	0.00767871	0.556109
0	Fe	0.422754	0.0467408	0.552516
0	C	0.367411	0.0401376	0.585591
0	H	0.400376	0.0612382	0.526565
0	C	0.343937	0.0481334	0.61211
0	H	0.419356	0.0564847	0.515898
0	C	0.34046	0.027317	0.613555
0	H	0.386798	0.104699	0.579745
0	H	0.434158	0.0848612	0.517012
0	C	0.412925	0.107662	0.563085
0	O	0.394846	0.0489138	0.564144
0	C	0.362557	0.0209172	0.586884
0	H	0.415259	0.096177	0.522918
0	C	0.430609	0.00453952	0.554243
0	H	0.370841	0.0098303	0.580086
0	O	0.447884	0.0749393	0.601466
0	O	0.435613	0.0446507	0.576988
0	C	0.358603	0.0535257	0.598544
0	Fe	0.424114	0.0588515	0.599589
0	O	0.412255	0.0801751	0.582178
0	C	0.388167	0.0447264	0.581397
0	O	0.410421	0.0508693	0.525435
0	C	0.440332	0.0221509	0.619175
0	O	0.236081	0.899966	0.668598
0	Fe	0.250374	0.904203	0.717958
0	O	0.27068	0.927186	0.718972
0	O	0.233035	0.917655	0.696431
0	C	0.229733	0.914811	0.678264
0	F	0.236663	0.918909	0.736525
0	O	0.19892	0.98736	0.686666
0	C	0.197348	0.981813	0.668975
0	C	0.210754	0.924185	0.647244
0	C	0.198134	0.955849	0.643457
0	C	0.217633	0.929041	0.666438
0	C	0.202787	0.961753	0.662906
0	C	0.212338	0.947645	0.673995
0	C	0.200238	0.937566	0.635914
0	H	0.189422	0.965848	0.635055
0	H	0.216493	0.951029	0.6882
0	H	0.213277	0.910023	0.641654
0	H	0.144992	0.910585	0.721366
0	O	0.174661	0.933065	0.722277
0	C	0.147972	0.904899	0.736306
0	O	0.263541	0.888961	0.698905
0	O	0.264963	0.889802	0.739641
0	O	0.273838	0.881963	0.659373
0	C	0.277391	0.875866	0.740196
0	O	0.229334	0.882774	0.720623
0	H	0.260146	0.895133	0.627508
0	O	0.190941	0.992812	0.655526
0	Fe	0.251047	0.875415	0.676703
0	C	0.271932	0.90647	0.626143
0	C	0.174618	0.929119	0.740491
0	O	0.166844	0.993681	0.712371
0	C	0.284946	0.896772	0.660032
0	C	0.285967	0.908259	0.641451
0	H	0.195573	0.948358	0.742637
0	H	0.204821	0.990359	0.726801
0	H	0.286651	0.963471	0.73263
0	C	0.287069	0.923311	0.72613
0	Fe	0.35694	0.962002	0.631305
0	C	0.371372	0.926231	0.650941
0	H	0.359635	0.889259	0.663542
0	H	0.314642	0.919904	0.648592
0	C	0.407846	0.910135	0.683961
0	C	0.377204	0.915874	0.669036
0	H	0.415901	0.879981	0.687362
0	Fe	0.291842	0.885606	0.701193
0	C	0.40409	0.890814	0.685009
0	C	0.414211	0.980956	0.64319
0	O	0.435001	0.927106	0.692733
0	O	0.442041	0.934375	0.732395
0	O	0.296068	0.908113	0.720256
0	H	0.44269	0.894557	0.734789
0	O	0.294508	0.901619	0.675355
0	C	0.302593	0.919519	0.637764
0	C	0.397937	0.968484	0.636787
0	H	0.428696	0.897461	0.716897
0	H	0.398528	0.938426	0.674474
0	O	0.374542	0.917675	0.634736
0	O	0.322354	0.881621	0.70375
0	C	0.393982	0.923418	0.67798
0	C	0.385662	0.884006	0.680626
0	C	0.372021	0.896331	0.671205
0	O	0.442106	0.894213	0.719831
0	O	0.438409	0.908513	0.66787
0	O	0.333435	0.944568	0.630147
0	O	0.381721	0.97712	0.632831
0	O	0.402138	0.950375	0.632934
0	C	0.427801	0.915796	0.681105
0	O	0.367235	0.944347	0.651285
0	H	0.411083	0.976781	0.674505
0	O	0.34565	0.977272	0.655043
0	C	0.416909	0.984987	0.663058
0	C	0.295327	0.934411	0.742904
0	H	0.331592	0.975164	0.653234
0	H	0.346862	0.990942	0.650917
0	H	0.324721	0.882095	0.71785
0	C	0.294217	0.954758	0.744006
0	O	0.286972	0.870378	0.725512
0	H	0.428427	0.932373	0.728629
0	H	0.44466	0.948616	0.729528
0	C	0.423779	0.991535	0.628898
0	O	0.339125	0.898365	0.62545
0	O	0.420395	0.99325	0.702475
0	C	0.304415	0.930677	0.620556
0	H	0.327533	0.892876	0.6972
0	H	0.446893	0.919707	0.633786
0	C	0.13252	0.995388	0.631958
0	C	0.150669	0.000889503	0.717288
0	H	0.19536	0.00580032	0.740026
0	O	0.138811	0.0066433	0.663946
0	O	0.141721	0.0122116	0.705823
0	C	0.143006	0.00189908	0.7383
0	C	0.144809	0.00543533	0.646523
0	O	0.202923	0.00404634	0.727515
0	O	0.159919	0.015823	0.640798
0	Fe	0.186846	0.0220624	0.654217
0	O	0.21575	0.0255321	0.665589
0	C	0.221214	0.0302888	0.682113
0	O	0.209588	0.0311381	0.695787
0	O	0.156738	0.0513443	0.695701
0	O	0.173934	0.0359715	0.719189
0	C	0.161098	0.0488671	0.713551
0	O	0.184651	0.0522706	0.651128
0	Fe	0.146999	0.0290092	0.680932
0	O	0.174162	0.0206884	0.679435
0	Fe	0.187684	0.0127944	0.702667
0	O	0.149305	0.0478017	0.65657
0	F	0.200187	0.0223924	0.629454
0	C	0.254072	0.0449072	0.6772
0	C	0.242439	0.0303837	0.685818
0	C	0.249919	0.020322	0.702895
0	H	0.247587	0.0557078	0.667694
0	H	0.241003	0.011429	0.713228
0	C	0.155035	0.0775021	0.7332
0	C	0.148473	0.0593522	0.727096
0	H	0.187872	0.0569736	0.664671
0	H	0.170369	0.0796977	0.73544
0	C	0.141925	0.093594	0.733291
0	O	0.185551	0.0906551	0.69051
0	O	0.156584	0.113638	0.71107
0	H	0.197005	0.0888227	0.682055
0	H	0.175481	0.0912954	0.680241
0	O	0.195761	0.103557	0.729226
0	C	0.269595	0.0220526	0.70884
0	C	0.27441	0.0445406	0.681672
0	C	0.275878	0.0193627	0.729165
0	C	0.151157	0.112222	0.728721
0	H	0.15183	0.0615131	0.66199
0	H	0.135861	0.0493451	0.651168
0	O	0.281437	0.0858977	0.627417
0	Fe	0.184975	0.117889	0.703793
0	C	0.281651	0.0306409	0.695148
0	C	0.12328	0.007899	0.739665
0	C	0.128432	0.0561737	0.725436
0	H	0.249726	0.117053	0.673789
0	H	0.274258	0.0982753	0.629653
0	H	0.123364	0.0412317	0.721095
0	C	0.12177	0.0900363	0.730749
0	O	0.263302	0.0220902	0.742369
0	H	0.331843	0.021486	0.624844
0	O	0.433738	0.039611	0.620859
0	C	0.382542	0.115877	0.721518
0	O	0.287263	0.103024	0.666529
0	C	0.288303	0.0600684	0.675906
0	H	0.388478	0.0940846	0.663118
0	C	0.337752	0.0638148	0.626565
0	O	0.319881	0.0693814	0.627481
0	O	0.42397	0.0575268	0.669508
0	O	0.339947	0.0615888	0.697669
0	Fe	0.320999	0.0854037	0.694349
0	C	0.435137	0.00868466	0.634281
0	O	0.350562	0.0706309	0.638054
0	O	0.326048	0.0876217	0.665961
0	H	0.31259	0.0474931	0.725854
0	C	0.375001	0.0633619	0.72433
0	C	0.427874	0.00161361	0.668781
0	C	0.436612	0.0135033	0.654338
0	H	0.296837	0.0299208	0.697764
0	F	0.31616	0.0828903	0.720704
0	Fe	0.303715	0.0862535	0.647341
0	C	0.357452	0.0640094	0.69258
0	O	0.362185	0.0753569	0.679314
0	O	0.29269	0.0619298	0.658143
0	O	0.293728	0.0146147	0.731802
0	C	0.410459	0.0556863	0.722674
0	Fe	0.352017	0.0934442	0.657687
0	H	0.388826	0.0491944	0.679141
0	C	0.393907	0.0623161	0.733349
0	H	0.424246	0.0544052	0.729356
0	C	0.373667	0.0571732	0.704613
0	C	0.408816	0.0522027	0.702634
0	C	0.426026	0.0555674	0.689829
0	O	0.345552	0.102171	0.703665
0	O	0.304337	0.110188	0.691983
0	O	0.335283	0.0136979	0.736221
0	O	0.380769	0.098542	0.651664
0	C	0.390259	0.051594	0.694446
0	C	0.429075	0.0050046	0.690406
0	O	0.296352	0.0697528	0.689493
0	H	0.361611	0.0690914	0.732369
0	O	0.440864	0.0196491	0.697851
0	C	0.289922	0.113282	0.681548
0	O	0.442969	0.056425	0.697676
0	O	0.34391	0.11463	0.637645
0	H	0.436192	0.0219692	0.71325
0	H	0.347907	0.0154453	0.743126
0	O	0.315596	0.0509648	0.739176
0	H	0.382918	0.112855	0.649573
0	H	0.33007	0.0522671	0.740061
0	H	0.437856	0.0581513	0.663358
0	C	0.356256	0.113602	0.693833
0	O	0.31157	0.113404	0.636186
0	H	0.373992	0.106315	0.729317
0	H	0.418815	0.0884195	0.624728
0	O	0.351755	0.11651	0.676334
0	O	0.412482	0.0747783	0.623857
0	H	0.335691	0.0223565	0.725063
0	H	0.445583	0.0259359	0.657863
0	H	0.399507	0.0782763	0.62038
0	O	0.129313	0.874163	0.866873
0	C	0.121509	0.949548	0.860329
0	H	0.178757	0.871766	0.825264
0	C	0.12034	0.986653	0.857626
0	C	0.221395	0.904905	0.86817
0	H	0.158483	0.991347	0.851745
0	C	0.135707	0.891033	0.744626
0	C	0.162259	0.913527	0.748958
0	O	0.188793	0.937927	0.751815
0	O	0.156204	0.905689	0.863323
0	H	0.26097	0.889389	0.813018
0	O	0.126972	0.887967	0.801931
0	O	0.204981	0.895284	0.783767
0	C	0.217895	0.886389	0.837272
0	H	0.19632	0.903692	0.790897
0	H	0.196374	0.893398	0.771976
0	O	0.150476	0.90879	0.809152
0	C	0.142844	0.896544	0.797415
0	Fe	0.136081	0.928437	0.825791
0	O	0.149363	0.951584	0.809653
0	C	0.197602	0.914871	0.84454
0	C	0.214456	0.904162	0.848941
0	H	0.19146	0.912493	0.829748
0	C	0.138165	0.885472	0.763755
0	C	0.149177	0.896032	0.776387
0	C	0.161804	0.910259	0.768913
0	H	0.169978	0.919374	0.779098
0	H	0.186797	0.983356	0.826703
0	O	0.219872	0.887529	0.819579
0	O	0.27172	0.886489	0.803966
0	O	0.158943	0.931085	0.844048
0	C	0.185661	0.921708	0.860047
0	C	0.165872	0.919931	0.856666
0	H	0.142999	0.95635	0.796996
0	O	0.124698	0.906891	0.839873
0	H	0.271194	0.896581	0.793163
0	H	0.151466	0.962665	0.818849
0	O	0.277378	0.909687	0.840568
0	O	0.179417	0.879168	0.81295
0	O	0.193903	0.993616	0.83337
0	H	0.265719	0.901267	0.842325
0	H	0.12742	0.875235	0.770785
0	H	0.121292	0.98604	0.842334
0	Fe	0.128261	0.905449	0.86715
0	O	0.217548	0.869866	0.845665
0	O	0.282912	0.992797	0.765369
0	H	0.203951	0.871294	0.744974
0	O	0.12086	0.948326	0.841517
0	Fe	0.204544	0.869543	0.800045
0	O	0.302565	0.874399	0.864865
0	H	0.443125	0.986738	0.763832
0	O	0.451015	0.983303	0.775269
0	H	0.310702	0.884968	0.789534
0	O	0.429146	0.985785	0.863953
0	O	0.299221	0.916941	0.802234
0	C	0.303571	0.965127	0.759756
0	Fe	0.329858	0.881907	0.855687
0	O	0.302123	0.938428	0.834855
0	F	0.34021	0.953054	0.834236
0	H	0.316524	0.962961	0.789061
0	Fe	0.329698	0.927384	0.835696
0	Fe	0.295636	0.894094	0.821176
0	H	0.304032	0.908409	0.759359
0	O	0.358798	0.918293	0.838824
0	O	0.31803	0.901618	0.837526
0	H	0.384637	0.938741	0.859173
0	O	0.312529	0.877994	0.801948
0	C	0.313977	0.934484	0.77507
0	C	0.314605	0.92465	0.794811
0	C	0.299896	0.986796	0.763875
0	C	0.313469	0.9552	0.774841
0	O	0.358557	0.888467	0.848384
0	H	0.300615	0.943061	0.848891
0	C	0.364646	0.90583	0.851284
0	C	0.304266	0.924438	0.758777
0	O	0.329761	0.925771	0.804971
0	H	0.302165	0.950885	0.827033
0	H	0.325008	0.884094	0.804786
0	O	0.328792	0.931531	0.865994
0	H	0.39917	0.981314	0.796207
0	O	0.392716	0.99185	0.845079
0	H	0.391068	0.978008	0.84144
0	O	0.386405	0.990251	0.797853
0	O	0.167944	0.996218	0.861791
0	O	0.177705	0.0550157	0.864929
0	H	0.16987	0.999063	0.756458
0	C	0.201472	0.108046	0.74626
0	O	0.14387	0.0324553	0.866308
0	C	0.243479	0.0135777	0.86568
0	H	0.203265	0.998233	0.788224
0	H	0.133699	0.0761572	0.815326
0	H	0.282088	0.0821447	0.810502
0	H	0.214091	0.0171184	0.787598
0	C	0.154899	0.00250686	0.756102
0	H	0.127155	0.0599365	0.800988
0	C	0.169665	0.104503	0.861622
0	H	0.237547	0.0895279	0.751948
0	O	0.21097	0.00685171	0.797209
0	O	0.17023	0.00377664	0.798667
0	F	0.246458	0.00193356	0.773321
0	O	0.18656	0.039667	0.795976
0	O	0.171067	0.0643576	0.809353
0	C	0.184456	0.0577425	0.798144
0	Fe	0.188835	0.0166875	0.815179
0	O	0.170501	0.028664	0.833585
0	Fe	0.149787	0.0461044	0.82392
0	O	0.14845	0.0280128	0.799698
0	O	0.208478	0.0325843	0.830589
0	C	0.155617	0.0130663	0.791932
0	O	0.251744	0.0411418	0.779753
0	C	0.25199	0.0598243	0.77502
0	C	0.246795	0.0271432	0.832602
0	C	0.26618	0.0227376	0.832606
0	H	0.240435	0.0338509	0.820054
0	C	0.217626	0.0645941	0.787982
0	C	0.192944	0.0845605	0.773999
0	C	0.231665	0.07003	0.774125
0	C	0.207207	0.0930891	0.760972
0	C	0.225873	0.0839331	0.761086
0	C	0.198292	0.0701747	0.786909
0	H	0.177761	0.08933	0.771633
0	H	0.222316	0.0544877	0.799182
0	C	0.145611	0.00674036	0.773899
0	C	0.23547	0.0224227	0.849281
0	O	0.274663	0.0135359	0.80067
0	O	0.15081	0.0640746	0.847271
0	C	0.214283	0.0263064	0.847005
0	O	0.129977	0.0253505	0.837724
0	O	0.126999	0.063211	0.814814
0	C	0.125789	0.00974406	0.774165
0	O	0.267785	0.0688221	0.773759
0	C	0.1321	0.0224353	0.856029
0	H	0.171472	0.10487	0.845398
0	Fe	0.269025	0.0181404	0.771901
0	C	0.27578	0.0264328	0.813624
0	C	0.275039	0.0140422	0.849617
0	Fe	0.173429	0.0261256	0.862374
0	O	0.202332	0.0223067	0.860643
0	C	0.164706	0.0675931	0.860316
0	O	0.279533	0.0440086	0.809571
0	C	0.122808	0.00557833	0.866638
0	C	0.263999	0.00992233	0.866322
0	H	0.444025	0.0190241	0.769649
0	C	0.408512	0.119168	0.74911
0	O	0.360281	0.114748	0.775361
0	H	0.451982	0.99516	0.838197
0	H	0.35583	0.118298	0.788401
0	O	0.430942	0.0910846	0.84681
0	C	0.397732	0.0719423	0.752769
0	O	0.411636	0.0246684	0.863699
0	O	0.395044	0.0840895	0.826605
0	O	0.313681	0.998495	0.764985
0	H	0.378919	0.996987	0.844868
0	O	0.411408	0.010611	0.807736
0	H	0.313461	0.0843918	0.771179
0	C	0.42873	0.0307397	0.868468
0	F	0.448354	0.0771297	0.751367
0	C	0.353647	0.0555002	0.813387
0	Fe	0.2928	0.0578804	0.785572
0	C	0.372569	0.0570967	0.821103
0	O	0.294267	0.0827413	0.80318
0	C	0.361522	0.0237616	0.799503
0	C	0.348533	0.0387455	0.803267
0	C	0.438909	0.0347393	0.833885
0	C	0.381713	0.0764996	0.816161
0	H	0.290527	0.0101645	0.850701
0	H	0.398376	0.0428969	0.825943
0	Fe	0.422515	0.0928206	0.817562
0	H	0.354865	0.102323	0.771409
0	C	0.331751	0.0401218	0.790465
0	C	0.379639	0.0241993	0.809331
0	O	0.387389	0.0855486	0.759745
0	O	0.376809	0.0836306	0.799596
0	O	0.424959	0.0647239	0.813541
0	H	0.419222	0.0854743	0.852945
0	C	0.384881	0.0413943	0.819687
0	C	0.393286	0.0074473	0.806185
0	O	0.33304	0.0329835	0.773598
0	O	0.446601	0.0655046	0.789879
0	O	0.317457	0.0482671	0.797015
0	H	0.34498	0.0681669	0.812353
0	Fe	0.433476	0.0864219	0.770459
0	C	0.440335	0.0582573	0.806043
0	O	0.308501	0.0728846	0.765872
0	C	0.443906	0.0324101	0.853167
0	H	0.440647	0.0797199	0.846061
0	Fe	0.313089	0.0248585	0.753387
0	O	0.412765	0.0662321	0.761645
0	H	0.424324	0.0326014	0.830836
0	H	0.358088	0.011849	0.789367
0	O	0.422325	0.105519	0.749716
0	Fe	0.389388	0.104302	0.783858
0	H	0.305019	0.0819527	0.812653
0	O	0.291354	0.034627	0.769087
0	O	0.415859	0.096019	0.790589
0	C	0.45068	0.044194	0.820071
0	O	0.167504	0.975881	0.982101
0	C	0.175818	0.979596	0.96612
0	Fe	0.137786	0.969223	0.986244
0	O	0.137961	0.94828	0.966227
0	Fe	0.238066	0.890803	0.933366
0	O	0.225094	0.913931	0.944643
0	C	0.222533	0.914895	0.962991
0	O	0.218775	0.89988	0.974091
0	O	0.180488	0.884413	0.963471
0	C	0.168615	0.88346	0.949155
0	O	0.227766	0.898982	0.906981
0	O	0.196719	0.893348	0.908251
0	C	0.211016	0.902866	0.901923
0	F	0.259466	0.904788	0.924696
0	O	0.265453	0.98645	0.892101
0	O	0.242751	0.977749	0.926381
0	C	0.22792	0.933519	0.972007
0	C	0.25189	0.960177	0.974271
0	C	0.244664	0.943404	0.964949
0	C	0.209411	0.912121	0.883308
0	H	0.182726	0.925989	0.891339
0	C	0.148911	0.892881	0.951906
0	C	0.143839	0.912172	0.945741
0	H	0.154974	0.920678	0.939267
0	C	0.207003	0.983311	0.947352
0	C	0.194928	0.989237	0.963393
0	H	0.208007	0.968621	0.941366
0	O	0.165652	0.980724	0.951503
0	H	0.251573	0.938022	0.951669
0	H	0.253133	0.945317	0.91368
0	O	0.253634	0.882431	0.957532
0	O	0.265895	0.948136	0.908132
0	C	0.268636	0.97036	0.964136
0	C	0.136342	0.882079	0.963256
0	O	0.128786	0.987847	0.96619
0	F	0.131462	0.904373	0.894243
0	Fe	0.271775	0.975288	0.920098
0	O	0.27466	0.963038	0.94823
0	H	0.275256	0.940495	0.914467
0	O	0.214963	0.8753	0.940411
0	C	0.192074	0.922134	0.87905
0	O	0.275557	0.986733	0.970099
0	H	0.259295	0.876169	0.87641
0	C	0.125201	0.921057	0.952803
0	C	0.218111	0.940026	0.988706
0	O	0.172504	0.873388	0.933607
0	C	0.122818	0.943242	0.956304
0	O	0.125372	0.935082	0.871574
0	C	0.123446	0.993493	0.92012
0	H	0.234216	0.895746	0.872521
0	C	0.121225	0.971623	0.890231
0	H	0.12434	0.959134	0.900085
0	H	0.278609	0.91168	0.959968
0	C	0.232957	0.993808	0.923236
0	H	0.163034	0.992839	0.875234
0	C	0.241343	0.967339	0.991512
0	H	0.206174	0.930313	0.993498
0	Fe	0.207872	0.872598	0.967405
0	C	0.121349	0.990331	0.898798
0	C	0.119969	0.969487	0.869513
0	H	0.142196	0.870484	0.97053
0	C	0.442747	0.977269	0.871707
0	O	0.327167	0.88128	0.964129
0	H	0.287433	0.883931	0.96709
0	C	0.370413	0.913394	0.871341
0	O	0.293734	0.89326	0.935991
0	H	0.378466	0.916809	0.966947
0	Fe	0.396307	0.884992	0.957049
0	C	0.319714	0.912976	0.913911
0	H	0.385918	0.934083	0.922255
0	C	0.380207	0.928697	0.90886
0	H	0.330067	0.955586	0.894356
0	O	0.442743	0.972201	0.890103
0	C	0.316777	0.918931	0.932809
0	O	0.29298	0.917529	0.960232
0	C	0.324612	0.951366	0.924367
0	H	0.319871	0.941183	0.953873
0	O	0.39254	0.969378	0.879791
0	C	0.311887	0.967512	0.926611
0	O	0.300414	0.971888	0.91334
0	C	0.384272	0.938854	0.891684
0	C	0.327132	0.919324	0.879482
0	O	0.38622	0.896535	0.93222
0	H	0.315165	0.898798	0.909853
0	C	0.325733	0.925936	0.899866
0	H	0.373183	0.986456	0.964918
0	F	0.420399	0.892765	0.947425
0	C	0.301446	0.908553	0.943828
0	C	0.328213	0.945331	0.905237
0	O	0.405918	0.961416	0.906458
0	O	0.391728	0.911647	0.971249
0	C	0.369364	0.89937	0.925027
0	O	0.439956	0.961333	0.927568
0	O	0.311315	0.975274	0.943139
0	C	0.394998	0.957112	0.892677
0	Fe	0.426355	0.982039	0.912423
0	H	0.361073	0.887221	0.888595
0	O	0.35416	0.894732	0.933384
0	C	0.367444	0.902238	0.888562
0	C	0.371175	0.91086	0.906933
0	C	0.322875	0.937622	0.938772
0	O	0.327661	0.900797	0.876893
0	H	0.421647	0.925401	0.983051
0	O	0.435912	0.918934	0.984221
0	C	0.380286	0.931369	0.873196
0	O	0.412827	0.874717	0.980206
0	O	0.370452	0.87558	0.96745
0	H	0.432043	0.956953	0.939035
0	C	0.323145	0.875882	0.981747
0	O	0.348308	0.981549	0.993255
0	O	0.410363	0.992326	0.93724
0	H	0.451269	0.967004	0.934525
0	C	0.286776	0.871884	0.976588
0	O	0.139714	0.998916	0.926882
0	C	0.216677	0.998041	0.936233
0	O	0.200703	0.0943419	0.963888
0	O	0.236268	0.0832569	0.946995
0	O	0.235965	0.0786734	0.97934
0	C	0.277827	0.0758927	0.97803
0	C	0.275809	0.0872797	0.945086
0	C	0.266501	0.0805333	0.961634
0	C	0.244892	0.0815074	0.963016
0	Fe	0.20895	0.0851693	0.938644
0	O	0.216687	0.0761967	0.910767
0	O	0.206228	0.0562006	0.945496
0	O	0.180499	0.0852228	0.929345
0	O	0.164351	0.10214	0.975497
0	O	0.203511	0.0523629	0.977226
0	C	0.204207	0.0451239	0.960689
0	C	0.17344	0.101373	0.924038
0	H	0.2673	0.0912205	0.932236
0	H	0.20622	0.0657633	0.908398
0	H	0.21456	0.0874867	0.901163
0	F	0.175768	0.0242098	0.889454
0	Fe	0.147087	0.00431335	0.955156
0	O	0.167845	0.0223768	0.943834
0	O	0.155675	0.00993998	0.984863
0	H	0.170328	0.018897	0.929587
0	H	0.164253	0.0363507	0.944198
0	Fe	0.267867	0.0228424	0.919796
0	O	0.257227	0.0478898	0.905946
0	O	0.254769	0.0325141	0.946605
0	H	0.244402	0.0413205	0.943723
0	O	0.240948	0.0083109	0.91428
0	H	0.243556	0.0485213	0.909926
0	C	0.166098	0.0858205	0.891469
0	H	0.162263	0.0718344	0.897684
0	C	0.197978	0.00869883	0.97018
0	C	0.204808	0.0232069	0.957871
0	C	0.212524	0.0177429	0.940072
0	H	0.193041	0.0119197	0.984279
0	H	0.21563	0.0282584	0.929272
0	H	0.249718	0.0204539	0.953795
0	Fe	0.20699	0.0799628	0.986865
0	C	0.162192	0.0865084	0.986429
0	H	0.257356	0.0449839	0.891522
0	C	0.168657	0.103592	0.903096
0	C	0.141169	0.0790754	0.987283
0	O	0.130869	0.0282472	0.956928
0	H	0.147867	0.0487517	0.981607
0	C	0.136031	0.0593824	0.981182
0	C	0.271969	0.0027346	0.884904
0	F	0.276991	0.0961048	0.875497
0	O	0.280797	0.0141569	0.895157
0	C	0.126829	0.092983	0.986364
0	O	0.216459	0.113363	0.930368
0	O	0.277326	0.999272	0.931329
0	O	0.175107	0.115906	0.935482
0	H	0.234559	0.0109202	0.878648
0	H	0.269992	0.0708543	0.991988
0	H	0.131248	0.108429	0.990519
0	C	0.165568	0.0864917	0.870801
0	O	0.28615	0.0271384	0.96156
0	H	0.122682	0.0218622	0.893952
0	C	0.120925	0.00721948	0.886925
0	H	0.363242	0.0614111	0.87488
0	C	0.450316	0.016372	0.92517
0	C	0.379083	0.999386	0.97165
0	C	0.373839	0.00445707	0.991474
0	H	0.298024	0.0342185	0.966062
0	O	0.383779	0.0938213	0.973416
0	F	0.3168	0.00303294	0.97176
0	Fe	0.297507	0.000827058	0.952211
0	C	0.352568	0.0548125	0.884456
0	O	0.389034	0.0363493	0.891086
0	C	0.322305	0.0554133	0.901709
0	Fe	0.412574	0.0288243	0.907373
0	H	0.342848	0.0118675	0.907281
0	F	0.411304	0.0545398	0.914966
0	C	0.306761	0.0897185	0.961459
0	O	0.435233	0.0270527	0.925006
0	O	0.31517	0.0896826	0.879431
0	O	0.345448	0.0965584	0.888962
0	O	0.412962	0.00194529	0.898238
0	C	0.332522	0.0845307	0.88466
0	O	0.315251	0.0138636	0.932735
0	O	0.375444	0.00747868	0.881849
0	O	0.294275	0.0370406	0.924042
0	O	0.293609	0.103044	0.912662
0	O	0.421532	0.0583527	0.987346
0	C	0.325432	0.0365509	0.908564
0	C	0.39836	0.00649184	0.940996
0	C	0.400489	0.0276891	0.969549
0	C	0.336302	0.0643407	0.889391
0	Fe	0.297447	0.111684	0.8851
0	C	0.392427	0.0102159	0.961357
0	C	0.355515	0.0349832	0.889881
0	C	0.305016	0.0991744	0.926795
0	F	0.429189	0.095256	0.977842
0	H	0.411393	0.0365906	0.962431
0	O	0.323765	0.102612	0.925905
0	H	0.308351	0.0631747	0.90629
0	C	0.310511	0.0283621	0.92194
0	C	0.341207	0.0263227	0.901385
0	C	0.296983	0.0826926	0.978624
0	H	0.319939	0.0978391	0.964322
0	C	0.295953	0.0915336	0.94435
0	H	0.381452	0.0791489	0.967085
0	C	0.374534	0.0255968	0.88707
0	O	0.432386	0.0362435	0.885831
0	O	0.394879	0.0208808	0.929648
0	O	0.365804	0.109256	0.922782
0	C	0.396101	0.0332172	0.988584
0	O	0.396914	0.100513	0.944532
0	C	0.391775	0.106634	0.960575
0	H	0.364571	0.0952868	0.92654
0	Fe	0.402917	0.996863	0.873003
0	O	0.449835	0.999158	0.918267
0	H	0.37719	0.110977	0.914124
0	H	0.437893	0.111628	0.900754
0	Fe	0.34122	0.119379	0.908605
0	O	0.11982	0.887708	0.107766
0	C	0.215445	0.879406	0.0921859
0	F	0.176235	0.961534	0.112092
0	H	0.129119	0.975811	0.109129
0	O	0.232708	0.927606	0.0457971
0	O	0.250308	0.949793	0.0616925
0	C	0.266843	0.922723	0.0477544
0	C	0.266992	0.901936	0.0470359
0	C	0.248343	0.934269	0.0519718
0	Fe	0.202798	0.931697	0.0494767
0	O	0.207025	0.95386	0.0672985
0	O	0.199526	0.908358	0.0300044
0	Fe	0.229405	0.971601	0.0614999
0	O	0.185808	0.986943	0.0809857
0	O	0.17354	0.93188	0.0520666
0	O	0.166091	0.951884	0.0768062
0	C	0.160944	0.939314	0.0638201
0	Fe	0.190682	0.957414	0.0904987
0	O	0.235033	0.978086	0.0905283
0	O	0.203314	0.912117	0.0728073
0	C	0.201279	0.912926	0.0915447
0	O	0.201672	0.950044	0.0256122
0	O	0.226766	0.967819	0.0319113
0	C	0.217148	0.958435	0.0197512
0	H	0.253337	0.89541	0.0458094
0	H	0.212305	0.908742	0.0233336
0	H	0.200932	0.895683	0.0379948
0	F	0.145482	0.951673	0.00667797
0	C	0.224688	0.956738	0.998383
0	H	0.246502	0.980324	0.998441
0	H	0.180932	0.987375	0.0290858
0	C	0.138777	0.934429	0.0620314
0	C	0.132916	0.921257	0.0473716
0	H	0.143988	0.914981	0.0375909
0	O	0.139181	0.990914	0.00611279
0	C	0.207625	0.895181	0.10322
0	O	0.195486	0.928496	0.100391
0	C	0.231347	0.968361	0.105737
0	O	0.214605	0.960368	0.108075
0	H	0.270434	0.970455	0.103665
0	H	0.132089	0.944719	0.0910336
0	C	0.132324	0.877989	0.116919
0	C	0.126025	0.938179	0.0778071
0	O	0.251857	0.992375	0.0563846
0	O	0.207822	0.990691	0.0584732
0	H	0.214296	0.879153	0.0765573
0	H	0.285842	0.947849	0.0497781
0	H	0.258842	0.989915	0.043556
0	C	0.285183	0.932083	0.0481502
0	C	0.284534	0.890874	0.0508514
0	H	0.26102	0.989125	0.0660122
0	C	0.266017	0.966229	0.118069
0	H	0.130993	0.870271	0.0791757
0	H	0.151684	0.869963	0.0148796
0	H	0.432359	0.873717	0.106299
0	O	0.336084	0.87745	0.994933
0	O	0.444208	0.936753	0.0592538
0	O	0.434195	0.874553	0.0925781
0	H	0.36368	0.903465	0.00875626
0	C	0.438436	0.916013	0.00351007
0	H	0.394154	0.885464	0.0632391
0	C	0.317522	0.933733	0.0624059
0	H	0.354274	0.982266	0.0693334
0	C	0.302764	0.902051	0.052479
0	H	0.383681	0.893437	0.0147575
0	O	0.342301	0.943051	0.101938
0	O	0.420976	0.961466	0.0585322
0	C	0.302552	0.922438	0.0514134
0	Fe	0.329596	0.966726	0.0910104
0	O	0.375478	0.937013	0.0752824
0	O	0.370667	0.910023	0.1075
0	H	0.315248	0.89346	0.0573201
0	O	0.360349	0.897756	0.0688518
0	O	0.306447	0.967096	0.110438
0	H	0.350648	0.886925	0.0726799
0	O	0.344744	0.985636	0.1098
0	C	0.439674	0.954093	0.0546802
0	Fe	0.351836	0.920725	0.0855325
0	O	0.312098	0.948087	0.0735218
0	O	0.334887	0.928692	0.060843
0	O	0.423415	0.914659	0.0148191
0	O	0.330299	0.902825	0.096819
0	O	0.351485	0.968216	0.0700527
0	H	0.357461	0.900429	0.0555357
0	H	0.371971	0.936829	0.0612123
0	O	0.374992	0.895835	0.00342542
0	H	0.412717	0.950181	0.0646356
0	H	0.345195	0.964951	0.0578352
0	H	0.345173	0.988347	0.028228
0	H	0.434489	0.992327	0.0444531
0	C	0.35871	0.994121	0.00232786
0	H	0.446799	0.901988	0.0409817
0	C	0.448703	0.986611	0.0413003
0	C	0.328009	0.899758	0.114913
0	O	0.316841	0.990745	0.0786355
0	O	0.392734	0.871407	0.0698554
0	H	0.302698	0.988613	0.0811528
0	H	0.353449	0.874729	0.0308932
0	H	0.127555	0.0916645	0.0470898
0	O	0.137395	0.0720911	0.117464
0	H	0.240733	0.116472	0.0271798
0	C	0.191718	0.994564	0.0650777
0	O	0.177046	0.0784998	0.994828
0	C	0.154241	0.102245	0.113025
0	C	0.133812	0.0157445	0.11357
0	O	0.123627	0.0319591	0.0578041
0	C	0.174868	0.00211245	0.0328513
0	O	0.216148	0.105548	0.00159765
0	O	0.132143	0.0143328	0.0953015
0	O	0.137773	0.0608458	0.0623429
0	C	0.138363	0.0430907	0.0569632
0	O	0.274927	0.0774883	0.0444181
0	F	0.212705	0.0670953	0.00890915
0	C	0.152125	0.00428403	0.00264147
0	C	0.15373	0.0295923	0.0281367
0	C	0.156128	0.0338484	0.0483072
0	C	0.178745	0.00754468	0.0523718
0	C	0.168048	0.0226673	0.0602161
0	C	0.162719	0.0129349	0.02023
0	H	0.168702	0.0251251	0.0750487
0	H	0.143061	0.0362676	0.01909
0	C	0.139714	0.0874198	0.106851
0	O	0.129794	0.0900385	0.0915163
0	H	0.264542	0.083456	0.0365344
0	H	0.279659	0.0662703	0.0369837
0	O	0.275914	0.117369	0.040544
0	O	0.29253	0.0935974	0.0109439
0	C	0.419428	0.0918995	0.0354326
0	O	0.351711	0.0900424	0.0350851
0	C	0.392683	0.115202	0.0387122
0	F	0.391035	0.0586911	0.0887073
0	C	0.306249	0.11335	0.0797156
0	O	0.317604	0.115463	0.0347218
0	O	0.439638	0.0250046	0.0264978
0	O	0.322506	0.0887389	0.00137317
0	O	0.452002	0.0489931	0.0573377
0	Fe	0.431319	0.0515997	0.0362126
0	O	0.408625	0.0514212	0.0162217
0	O	0.354648	0.998913	0.02166
0	H	0.319693	0.000936671	0.0879154
0	Fe	0.338519	0.10883	0.0159741
0	O	0.425722	0.0684149	0.106891
0	H	0.359114	0.082483	0.0255579
0	O	0.368023	0.0760264	0.115138
0	H	0.3861	0.108842	0.0259296
0	Fe	0.396515	0.0716263	0.110923
0	H	0.431733	0.108009	0.0679248
0	O	0.301389	0.0987884	0.0698995
0	Fe	0.297285	0.0961698	0.0405978
0	O	0.397478	0.0966565	0.0943218
0	O	0.418914	0.0919871	0.0167875
0	C	0.360085	0.0929417	0.117148
0	C	0.382369	0.0213389	0.999176
0	C	0.311697	0.109598	0.0997635
0	C	0.304377	0.087951	0.998545
0	O	0.412057	0.0391024	0.0552218
0	Fe	0.439533	0.0791437	0.997134
0	H	0.40237	0.0332679	0.0475485
0	O	0.316513	0.0743779	0.0406465
0	C	0.410967	0.108603	0.045207
0	H	0.30979	0.0644017	0.0330652
0	H	0.333892	0.0916507	0.0866725
0	C	0.408423	0.0494449	0.99795
0	F	0.359519	0.103204	0.998471
0	O	0.450213	0.0643261	0.0188352
0	O	0.424436	0.0781521	0.0451031
0	C	0.418874	0.115434	0.0622813
0	C	0.404869	0.113664	0.0949467
0	H	0.318629	0.0697307	0.0541247
0	H	0.37869	0.0259056	0.0131207
0	C	0.328059	0.0979968	0.100524
0	H	0.419558	0.028764	0.0623513
0	O	0.371062	0.107937	0.11727
0	C	0.437861	0.0612978	0.118747
0	C	0.338715	0.0965027	0.117681
0	C	0.304579	0.118257	0.11683
0	O	0.469367	0.16862	0.137787
0	O	0.477175	0.194175	0.173664
0	O	0.488049	0.222559	0.167093
0	C	0.487245	0.20859	0.178699
0	O	0.47793	0.209092	0.132537
0	O	0.465843	0.238267	0.13366
0	C	0.4935	0.197372	0.214405
0	C	0.493353	0.21233	0.199671
0	C	0.4969	0.232447	0.205188
0	H	0.49425	0.181817	0.210189
0	Fe	0.46365	0.239373	0.163053
0	C	0.49502	0.237773	0.225028
0	C	0.491524	0.203562	0.234404
0	C	0.490313	0.223236	0.238951
0	O	0.59677	0.217818	0.232128
0	H	0.587261	0.214352	0.221983
0	H	0.509131	0.141845	0.221252
0	O	0.493713	0.146083	0.218005
0	C	0.486251	0.133816	0.203676
0	C	0.465323	0.136417	0.197305
0	O	0.59383	0.136726	0.127732
0	H	0.464768	0.164596	0.209002
0	Fe	0.457343	0.193849	0.149078
0	O	0.459249	0.239564	0.192163
0	H	0.461764	0.165903	0.125889
0	O	0.583174	0.175448	0.241194
0	H	0.464734	0.15892	0.146883
0	C	0.473923	0.224818	0.12382
0	H	0.496454	0.243344	0.194447
0	C	0.45743	0.122753	0.184268
0	C	0.455858	0.153805	0.201018
0	H	0.589332	0.225197	0.242048
0	O	0.578403	0.123327	0.165212
0	H	0.582825	0.134188	0.172614
0	H	0.596371	0.177583	0.121236
0	H	0.573846	0.183107	0.234663
0	O	0.619973	0.130257	0.162308
0	H	0.620178	0.159167	0.19012
0	O	0.78146	0.126101	0.132954
0	O	0.698564	0.13465	0.179693
0	O	0.622178	0.183129	0.22046
0	C	0.708402	0.135684	0.127784
0	C	0.641194	0.199815	0.174479
0	H	0.654544	0.168643	0.13915
0	O	0.704516	0.160563	0.160419
0	O	0.664957	0.201205	0.229732
0	F	0.659547	0.234972	0.209178
0	C	0.655225	0.208119	0.141456
0	C	0.647114	0.194511	0.155908
0	C	0.646725	0.17493	0.151438
0	H	0.709457	0.166138	0.174342
0	C	0.628947	0.143318	0.152812
0	O	0.631737	0.141777	0.134257
0	O	0.655044	0.226941	0.143508
0	C	0.627291	0.194272	0.206612
0	C	0.632869	0.187132	0.187359
0	C	0.629814	0.168062	0.181133
0	O	0.627472	0.212327	0.209169
0	C	0.636834	0.161778	0.162908
0	Fe	0.645798	0.223931	0.229413
0	H	0.642374	0.215612	0.177941
0	H	0.715959	0.150109	0.126192
0	O	0.658798	0.201218	0.125061
0	C	0.701246	0.141464	0.162525
0	H	0.739458	0.126299	0.157061
0	H	0.688132	0.163313	0.240097
0	C	0.700355	0.173547	0.243095
0	C	0.701796	0.128459	0.146099
0	H	0.715335	0.123378	0.214089
0	C	0.696721	0.193054	0.242181
0	H	0.785084	0.150863	0.216011
0	C	0.785173	0.138801	0.119795
0	H	0.678592	0.12467	0.221373
0	H	0.782923	0.147365	0.193272
0	H	0.54098	0.360377	0.178369
0	F	0.479781	0.260623	0.163925
0	O	0.519321	0.328514	0.229915
0	Fe	0.513721	0.298258	0.23047
0	O	0.533764	0.296523	0.209561
0	O	0.509881	0.269754	0.228548
0	C	0.495471	0.258204	0.233218
0	O	0.491892	0.298228	0.210723
0	O	0.476488	0.324109	0.221965
0	C	0.476683	0.308573	0.211968
0	H	0.555205	0.34411	0.235707
0	H	0.544331	0.286248	0.210673
0	H	0.526365	0.291317	0.199031
0	C	0.585925	0.33782	0.140677
0	H	0.470131	0.271061	0.210847
0	C	0.60509	0.304932	0.13631
0	C	0.60342	0.324388	0.143858
0	O	0.5767	0.348572	0.153733
0	O	0.59348	0.35866	0.238386
0	F	0.608392	0.328436	0.219965
0	H	0.592412	0.295961	0.132498
0	C	0.458829	0.299081	0.204175
0	C	0.515942	0.340907	0.243463
0	C	0.458256	0.279149	0.205571
0	Fe	0.616453	0.340655	0.242372
0	C	0.549746	0.356397	0.244138
0	H	0.489875	0.292926	0.12234
0	O	0.582116	0.342869	0.123871
0	H	0.559171	0.369311	0.186448
0	H	0.459148	0.366905	0.22167
0	H	0.780592	0.295063	0.172071
0	O	0.627763	0.24748	0.230859
0	O	0.669727	0.339762	0.122621
0	H	0.654782	0.300779	0.131345
0	C	0.622899	0.333664	0.147597
0	H	0.623517	0.347925	0.154854
0	O	0.6662	0.346157	0.155125
0	O	0.77468	0.307014	0.208346
0	C	0.659829	0.338366	0.139229
0	H	0.69577	0.318372	0.150792
0	H	0.680574	0.34529	0.194611
0	C	0.640905	0.30675	0.136195
0	O	0.705702	0.328458	0.148994
0	H	0.755526	0.35279	0.184212
0	C	0.640794	0.326757	0.140182
0	O	0.632078	0.358371	0.225591
0	F	0.682771	0.256176	0.13659
0	C	0.623127	0.295203	0.134247
0	H	0.766411	0.311387	0.19806
0	H	0.703135	0.341516	0.196241
0	O	0.644642	0.268204	0.129179
0	O	0.722242	0.360828	0.168867
0	O	0.691418	0.33872	0.188247
0	Fe	0.694988	0.353302	0.162074
0	H	0.773239	0.293317	0.208774
0	H	0.741631	0.273438	0.232948
0	C	0.626945	0.273282	0.127548
0	O	0.779274	0.345845	0.217967
0	H	0.69108	0.315686	0.238924
0	O	0.726239	0.303778	0.236525
0	O	0.63811	0.319122	0.244151
0	H	0.622093	0.24935	0.217211
0	Fe	0.664018	0.245047	0.12079
0	C	0.760543	0.368144	0.183898
0	C	0.717306	0.287804	0.239859
0	O	0.727322	0.270589	0.236829
0	O	0.774561	0.307157	0.243347
0	O	0.696943	0.368811	0.138002
0	H	0.578354	0.174182	0.254414
0	H	0.536751	0.170575	0.250331
0	H	0.480157	0.124646	0.346771
0	C	0.453807	0.128533	0.329537
0	H	0.534378	0.149794	0.253495
0	Fe	0.609891	0.193808	0.245269
0	O	0.461662	0.198334	0.304975
0	O	0.503889	0.181229	0.256796
0	C	0.489229	0.190824	0.252219
0	O	0.467594	0.152735	0.269546
0	O	0.49936	0.142348	0.268456
0	C	0.481031	0.140044	0.264622
0	Fe	0.466198	0.174835	0.28618
0	O	0.492439	0.171752	0.297027
0	Fe	0.513769	0.166902	0.279178
0	O	0.537488	0.161513	0.261007
0	O	0.528099	0.19151	0.289815
0	C	0.534502	0.192638	0.307148
0	O	0.526477	0.183372	0.32094
0	Fe	0.499435	0.170082	0.324932
0	O	0.529193	0.151314	0.299033
0	C	0.461197	0.147751	0.321848
0	O	0.475053	0.19232	0.263556
0	H	0.486904	0.226555	0.254271
0	C	0.572499	0.225049	0.332745
0	C	0.552596	0.204087	0.311477
0	C	0.555577	0.213416	0.328976
0	C	0.587721	0.22281	0.318869
0	O	0.508208	0.141892	0.321856
0	C	0.573123	0.239555	0.349087
0	O	0.473834	0.15615	0.331938
0	O	0.48918	0.198765	0.3308
0	O	0.596997	0.203274	0.269797
0	C	0.56796	0.203546	0.298425
0	C	0.522002	0.13828	0.309829
0	H	0.567116	0.194356	0.285131
0	C	0.585652	0.21322	0.301672
0	H	0.543987	0.211851	0.339505
0	H	0.485094	0.198492	0.344659
0	H	0.50061	0.207508	0.330071
0	H	0.601158	0.229377	0.321678
0	C	0.601535	0.210073	0.286861
0	F	0.505603	0.168188	0.351954
0	H	0.608153	0.137783	0.285236
0	O	0.559009	0.239603	0.361552
0	O	0.456055	0.1544	0.305665
0	H	0.51956	0.232537	0.356511
0	O	0.619309	0.214691	0.290587
0	H	0.526555	0.242426	0.336584
0	C	0.474613	0.122922	0.253263
0	C	0.532169	0.119582	0.309042
0	O	0.683008	0.210727	0.369037
0	C	0.772841	0.146866	0.368775
0	H	0.735098	0.120714	0.320765
0	H	0.736071	0.140921	0.309208
0	O	0.706565	0.13461	0.247882
0	C	0.676857	0.199863	0.244545
0	O	0.665361	0.237808	0.247096
0	C	0.782103	0.141783	0.287687
0	H	0.707222	0.222991	0.249341
0	C	0.782922	0.211701	0.343938
0	O	0.620928	0.170079	0.257161
0	C	0.711155	0.207388	0.247893
0	C	0.778243	0.219211	0.363431
0	H	0.746793	0.216933	0.359995
0	O	0.685207	0.16356	0.352821
0	H	0.678099	0.176408	0.348651
0	H	0.769757	0.143376	0.297864
0	O	0.710128	0.185361	0.351022
0	O	0.743402	0.232446	0.324053
0	H	0.746615	0.175368	0.263162
0	H	0.7247	0.186275	0.311229
0	O	0.776069	0.222538	0.298899
0	Fe	0.645881	0.210381	0.275339
0	C	0.732022	0.180567	0.257393
0	H	0.669737	0.148905	0.271587
0	O	0.769836	0.201941	0.335291
0	H	0.664336	0.224037	0.303386
0	C	0.622931	0.133158	0.282223
0	O	0.733817	0.188779	0.322552
0	O	0.768813	0.182005	0.296734
0	C	0.718738	0.14576	0.256149
0	C	0.740686	0.212967	0.270136
0	C	0.657875	0.139281	0.276602
0	C	0.704593	0.168171	0.353277
0	H	0.649697	0.207142	0.310694
0	O	0.671874	0.205972	0.26182
0	O	0.730245	0.139607	0.269487
0	C	0.728589	0.200925	0.256574
0	O	0.632764	0.210308	0.250086
0	H	0.73864	0.17544	0.323649
0	O	0.727477	0.129122	0.311104
0	O	0.644583	0.179618	0.277218
0	O	0.753007	0.225523	0.264798
0	O	0.737612	0.209872	0.287567
0	H	0.744394	0.171471	0.355432
0	C	0.717588	0.166614	0.252608
0	C	0.633889	0.166474	0.270063
0	C	0.739164	0.156766	0.360254
0	O	0.660435	0.210498	0.30162
0	C	0.638346	0.146085	0.276795
0	Fe	0.755982	0.206371	0.310494
0	O	0.648962	0.24056	0.273025
0	C	0.718554	0.153705	0.360515
0	Fe	0.768854	0.243851	0.284051
0	H	0.689399	0.216923	0.357815
0	C	0.785564	0.126172	0.275702
0	O	0.785174	0.132609	0.365661
0	C	0.752011	0.142731	0.36788
0	C	0.758655	0.221186	0.368768
0	C	0.662558	0.119841	0.282131
0	O	0.697554	0.119882	0.285639
0	C	0.71076	0.1367	0.369231
0	H	0.668719	0.211634	0.365668
0	C	0.581808	0.323773	0.366873
0	O	0.454424	0.32419	0.338498
0	O	0.484034	0.262454	0.247297
0	O	0.533865	0.296606	0.250007
0	H	0.455849	0.349591	0.265584
0	O	0.593138	0.309265	0.367113
0	H	0.470305	0.355112	0.364999
0	H	0.509888	0.369212	0.270123
0	O	0.520766	0.245202	0.349423
0	C	0.584504	0.369409	0.251393
0	C	0.530639	0.356808	0.249967
0	H	0.454711	0.347582	0.306804
0	H	0.465162	0.324478	0.348025
0	O	0.493745	0.30111	0.251029
0	O	0.460927	0.348826	0.251959
0	H	0.570697	0.299773	0.252053
0	H	0.51823	0.344417	0.361491
0	O	0.459944	0.285579	0.271778
0	O	0.500961	0.340004	0.25389
0	Fe	0.477429	0.324162	0.251675
0	C	0.521008	0.304317	0.361175
0	C	0.600664	0.344247	0.341959
0	Fe	0.490059	0.281365	0.269063
0	F	0.48723	0.260643	0.285355
0	O	0.494495	0.297392	0.292484
0	C	0.492291	0.34161	0.317909
0	C	0.501245	0.349508	0.334554
0	C	0.487406	0.314222	0.295866
0	C	0.492975	0.321742	0.315884
0	C	0.510796	0.3376	0.349055
0	C	0.501187	0.30967	0.330207
0	C	0.510478	0.317572	0.347645
0	O	0.478174	0.324724	0.283076
0	O	0.520516	0.274588	0.270086
0	O	0.551479	0.270184	0.333328
0	O	0.57291	0.293245	0.337686
0	C	0.5858	0.293011	0.298223
0	C	0.55457	0.276716	0.293368
0	C	0.586983	0.298839	0.278728
0	C	0.554307	0.284287	0.275186
0	C	0.570478	0.29468	0.267641
0	C	0.568511	0.283698	0.305666
0	C	0.535213	0.284742	0.263674
0	C	0.563351	0.282816	0.326334
0	Fe	0.540569	0.263658	0.361337
0	H	0.486085	0.351514	0.307649
0	H	0.502253	0.293992	0.327634
0	H	0.597613	0.297188	0.308283
0	H	0.54195	0.269303	0.298145
0	O	0.521599	0.286118	0.356603
0	H	0.608509	0.331536	0.33738
0	C	0.602236	0.313254	0.271907
0	O	0.598017	0.323024	0.257124
0	C	0.586617	0.342128	0.356885
0	F	0.608472	0.282777	0.347369
0	Fe	0.585294	0.281809	0.359994
0	O	0.584304	0.25378	0.348443
0	C	0.601052	0.361044	0.329574
0	C	0.574548	0.35871	0.360041
0	C	0.612629	0.360943	0.311117
0	O	0.618431	0.31548	0.280872
0	O	0.619326	0.344091	0.305332
0	O	0.466268	0.362717	0.353369
0	O	0.453165	0.30823	0.249533
0	H	0.461392	0.3679	0.316254
0	O	0.76219	0.267997	0.267061
0	H	0.657691	0.306957	0.300073
0	H	0.760715	0.312046	0.245772
0	O	0.625429	0.352681	0.26637
0	H	0.713905	0.244704	0.345575
0	O	0.782137	0.261708	0.304069
0	C	0.654292	0.318585	0.253009
0	O	0.657055	0.360029	0.292447
0	H	0.697411	0.363113	0.297075
0	C	0.685497	0.302989	0.245944
0	C	0.739581	0.249089	0.316383
0	H	0.640423	0.315439	0.313876
0	C	0.707241	0.274449	0.353069
0	F	0.773813	0.346573	0.255511
0	C	0.668882	0.266992	0.26021
0	H	0.642694	0.283397	0.259412
0	Fe	0.761186	0.349733	0.316134
0	C	0.657443	0.283831	0.257787
0	O	0.72407	0.335176	0.344936
0	Fe	0.638186	0.33761	0.28531
0	O	0.745056	0.324347	0.322045
0	C	0.723107	0.30063	0.334555
0	O	0.744905	0.25156	0.299226
0	O	0.735415	0.365003	0.310023
0	Fe	0.738317	0.360289	0.358772
0	O	0.651871	0.319643	0.305859
0	C	0.716407	0.26004	0.341843
0	C	0.660955	0.247659	0.261085
0	C	0.73086	0.321281	0.333797
0	O	0.761993	0.355883	0.343712
0	C	0.666243	0.301319	0.252362
0	H	0.698354	0.255705	0.256896
0	C	0.710409	0.294674	0.349293
0	C	0.728748	0.265625	0.327187
0	H	0.773105	0.270882	0.258166
0	H	0.743504	0.288744	0.312217
0	C	0.696923	0.286875	0.247537
0	C	0.689079	0.269128	0.255105
0	C	0.732325	0.285473	0.323062
0	O	0.658418	0.331005	0.265748
0	H	0.704135	0.305836	0.358483
0	F	0.760623	0.341736	0.290025
0	H	0.763085	0.278683	0.276847
0	Fe	0.57019	0.21269	0.461757
0	O	0.576513	0.209798	0.432747
0	C	0.59385	0.209769	0.427291
0	O	0.603768	0.194419	0.428835
0	O	0.589158	0.237213	0.462448
0	O	0.5918	0.196355	0.469612
0	Fe	0.599359	0.174932	0.452172
0	O	0.551636	0.189476	0.460623
0	O	0.570392	0.169446	0.444774
0	C	0.554098	0.175251	0.450227
0	F	0.549927	0.229309	0.454943
0	C	0.495942	0.229201	0.435404
0	C	0.508954	0.238363	0.421349
0	H	0.478708	0.234219	0.461521
0	H	0.51498	0.230127	0.409334
0	C	0.602592	0.227992	0.418971
0	C	0.536502	0.166512	0.443102
0	O	0.474946	0.202288	0.442261
0	C	0.487536	0.210341	0.431021
0	O	0.494751	0.199347	0.416002
0	C	0.488158	0.240537	0.450416
0	O	0.561191	0.217229	0.489558
0	H	0.487614	0.185594	0.416637
0	H	0.519551	0.17099	0.469292
0	O	0.478799	0.163937	0.473761
0	C	0.518616	0.16657	0.453487
0	C	0.482018	0.155676	0.456974
0	C	0.501154	0.158258	0.445883
0	C	0.536624	0.159583	0.424602
0	C	0.520485	0.145298	0.393963
0	H	0.550187	0.162304	0.416802
0	C	0.520318	0.151322	0.414987
0	O	0.537866	0.144424	0.383864
0	O	0.47066	0.143509	0.450009
0	H	0.489869	0.146033	0.419134
0	O	0.601545	0.155494	0.475386
0	C	0.502952	0.150347	0.426263
0	O	0.504439	0.144413	0.384826
0	O	0.608389	0.152344	0.434453
0	C	0.611522	0.158138	0.490864
0	H	0.618503	0.146677	0.442264
0	O	0.599105	0.23142	0.49176
0	Fe	0.604894	0.202535	0.493434
0	H	0.59842	0.142588	0.433647
0	C	0.595216	0.242972	0.478444
0	H	0.535533	0.134565	0.372099
0	C	0.622947	0.228265	0.414431
0	H	0.768946	0.14252	0.411362
0	H	0.631233	0.215685	0.413177
0	O	0.626742	0.177934	0.457614
0	O	0.662067	0.231618	0.401642
0	C	0.683015	0.134999	0.447428
0	C	0.663197	0.16402	0.460928
0	O	0.668323	0.123183	0.450599
0	C	0.692811	0.205973	0.428106
0	C	0.689248	0.170864	0.438386
0	O	0.631868	0.202812	0.479336
0	C	0.670047	0.197181	0.453395
0	C	0.678884	0.156804	0.449374
0	C	0.659214	0.184055	0.463893
0	H	0.701378	0.166349	0.428959
0	O	0.700436	0.129978	0.442482
0	Fe	0.689684	0.230705	0.391899
0	O	0.699426	0.219807	0.438238
0	O	0.719052	0.229374	0.384231
0	C	0.637988	0.189013	0.467605
0	H	0.665889	0.212471	0.454969
0	C	0.683556	0.190767	0.439495
0	C	0.73417	0.230054	0.395554
0	C	0.754091	0.229299	0.387483
0	O	0.770274	0.156779	0.413811
0	H	0.652891	0.153868	0.467534
0	O	0.69138	0.206468	0.409719
0	H	0.758479	0.162879	0.407677
0	H	0.768791	0.191682	0.399607
0	O	0.73283	0.231365	0.414358
0	C	0.768446	0.237652	0.399021
0	H	0.665888	0.237667	0.474587
0	C	0.743923	0.125825	0.376309
0	C	0.723637	0.124203	0.378131
0	H	0.782867	0.198446	0.414028
0	O	0.781617	0.194851	0.400533
0	F	0.731346	0.239307	0.452627
0	H	0.783753	0.13561	0.445176
0	O	0.779643	0.164004	0.373234
0	H	0.695522	0.134897	0.372467
0	C	0.45284	0.36348	0.469246
0	H	0.466566	0.301536	0.416813
0	H	0.577975	0.245202	0.424088
0	C	0.588062	0.365093	0.443513
0	O	0.57724	0.363754	0.457827
0	C	0.592416	0.245837	0.420505
0	O	0.530145	0.310846	0.375887
0	O	0.565462	0.322229	0.374618
0	Fe	0.553019	0.300234	0.391906
0	O	0.548311	0.320946	0.412555
0	O	0.535561	0.282032	0.409107
0	O	0.52717	0.257194	0.388106
0	O	0.578339	0.289453	0.406424
0	O	0.597422	0.273582	0.384177
0	C	0.526588	0.265892	0.405248
0	C	0.591475	0.276049	0.401613
0	H	0.534611	0.325346	0.412925
0	H	0.5489	0.314178	0.425753
0	Fe	0.574177	0.349679	0.482968
0	O	0.565829	0.326578	0.467974
0	O	0.602374	0.34149	0.483147
0	O	0.590048	0.316634	0.449065
0	C	0.577641	0.313221	0.462427
0	O	0.475676	0.308383	0.452484
0	O	0.47384	0.291094	0.455404
0	C	0.475148	0.273103	0.461477
0	C	0.588534	0.277708	0.470155
0	C	0.578144	0.294759	0.474769
0	C	0.590665	0.262888	0.483938
0	H	0.594314	0.276242	0.455968
0	C	0.504436	0.26905	0.437255
0	C	0.513704	0.257649	0.421628
0	C	0.490502	0.260319	0.450861
0	H	0.506126	0.284646	0.438826
0	C	0.601657	0.263558	0.415198
0	H	0.480558	0.318579	0.442618
0	H	0.558514	0.356686	0.422204
0	F	0.548319	0.35807	0.483824
0	O	0.462368	0.264997	0.473069
0	Fe	0.614122	0.333019	0.458112
0	O	0.603652	0.356132	0.443153
0	O	0.521069	0.361542	0.422584
0	C	0.570143	0.295817	0.49345
0	H	0.506061	0.361061	0.427896
0	O	0.559391	0.280675	0.373144
0	H	0.563242	0.359042	0.371422
0	H	0.464484	0.319172	0.49354
0	O	0.453333	0.332728	0.452254
0	O	0.453417	0.306634	0.416857
0	H	0.457435	0.320988	0.415695
0	H	0.763843	0.244999	0.412693
0	O	0.712571	0.364861	0.373951
0	O	0.687177	0.253258	0.370692
0	C	0.622283	0.264398	0.413421
0	O	0.623009	0.308072	0.471571
0	H	0.637865	0.333414	0.431235
0	H	0.63187	0.311412	0.433965
0	H	0.619891	0.355813	0.379289
0	C	0.632503	0.246831	0.411504
0	O	0.745756	0.33968	0.378427
0	C	0.652805	0.247464	0.404335
0	O	0.626893	0.324434	0.432028
0	C	0.72699	0.286549	0.425925
0	H	0.658674	0.303233	0.407696
0	O	0.660737	0.263631	0.399236
0	C	0.645119	0.358895	0.478891
0	H	0.763818	0.282624	0.438744
0	O	0.730925	0.268667	0.429165
0	H	0.747727	0.293043	0.470509
0	O	0.673035	0.30341	0.4086
0	C	0.777998	0.308123	0.428617
0	O	0.697576	0.250791	0.412146
0	C	0.635713	0.307314	0.484454
0	O	0.67426	0.273533	0.435758
0	H	0.665198	0.2986	0.462187
0	C	0.660078	0.252021	0.477982
0	C	0.64596	0.289072	0.485035
0	Fe	0.686042	0.27615	0.410066
0	O	0.743945	0.303119	0.48057
0	C	0.667571	0.268361	0.468094
0	C	0.743127	0.301087	0.424087
0	Fe	0.714547	0.244724	0.433497
0	O	0.709811	0.291114	0.421937
0	H	0.701249	0.290631	0.478774
0	H	0.71353	0.27129	0.480855
0	O	0.695604	0.257035	0.452676
0	C	0.776752	0.325553	0.417023
0	O	0.639949	0.346539	0.466077
0	O	0.774783	0.352001	0.384109
0	C	0.761277	0.296486	0.432428
0	H	0.728086	0.3192	0.404032
0	C	0.742273	0.317079	0.411035
0	C	0.760064	0.341287	0.389013
0	H	0.629545	0.278322	0.412972
0	O	0.69882	0.28008	0.385291
0	O	0.713328	0.285634	0.484867
0	C	0.759763	0.328676	0.406971
0	C	0.659905	0.286312	0.470071
0	C	0.680484	0.266048	0.451679
0	H	0.675954	0.309125	0.395127
0	C	0.665112	0.361137	0.483911
0	H	0.670622	0.329581	0.482441
0	C	0.740394	0.365192	0.493571
0	H	0.726373	0.3577	0.491928
0	C	0.647846	0.255115	0.494186
0	C	0.674168	0.343938	0.489736
0	O	0.633212	0.364293	0.491852
0	H	0.715296	0.358873	0.386715
0	C	0.697174	0.269254	0.370265
0	Fe	0.45862	0.160312	0.496093
0	H	0.4758	0.209678	0.61738
0	C	0.473756	0.123028	0.512792
0	O	0.534028	0.123848	0.590121
0	O	0.602855	0.123742	0.586319
0	O	0.612366	0.174644	0.498393
0	H	0.59442	0.132033	0.508587
0	C	0.595883	0.171848	0.610368
0	C	0.563964	0.209401	0.506162
0	F	0.469873	0.179868	0.509754
0	O	0.578878	0.198053	0.508531
0	O	0.550983	0.155677	0.56317
0	O	0.574914	0.13911	0.593712
0	C	0.593684	0.137854	0.594201
0	H	0.538214	0.157641	0.569028
0	C	0.5456	0.23291	0.525258
0	C	0.517724	0.224509	0.544963
0	C	0.549465	0.213584	0.52115
0	C	0.520382	0.204357	0.540054
0	C	0.537303	0.199211	0.5292
0	H	0.506004	0.230074	0.553263
0	H	0.540485	0.184188	0.528095
0	O	0.505382	0.173796	0.540242
0	C	0.504223	0.191035	0.54559
0	O	0.487015	0.197857	0.55402
0	C	0.530041	0.238205	0.537053
0	C	0.604465	0.155771	0.599717
0	O	0.477531	0.139601	0.50566
0	H	0.549232	0.15462	0.549088
0	H	0.478049	0.184859	0.558064
0	O	0.583586	0.132382	0.551762
0	Fe	0.559495	0.127405	0.571272
0	C	0.609423	0.132686	0.513368
0	H	0.610603	0.218919	0.525002
0	C	0.613575	0.128074	0.532518
0	H	0.508544	0.128625	0.532595
0	C	0.496274	0.126039	0.612382
0	H	0.614706	0.197677	0.528685
0	O	0.617805	0.208009	0.519269
0	H	0.567347	0.230086	0.607093
0	H	0.556107	0.243734	0.519544
0	C	0.476642	0.123587	0.618684
0	H	0.555927	0.211947	0.616979
0	C	0.607495	0.18828	0.614091
0	H	0.476599	0.19083	0.606299
0	C	0.597058	0.120726	0.545523
0	H	0.503527	0.139979	0.613014
0	O	0.55908	0.225871	0.618458
0	H	0.583423	0.170324	0.619363
0	O	0.482174	0.196789	0.619053
0	H	0.730627	0.135961	0.53778
0	H	0.66912	0.223402	0.503737
0	H	0.636139	0.124329	0.555288
0	C	0.622666	0.142912	0.502382
0	C	0.623818	0.15738	0.593361
0	C	0.626039	0.189693	0.606468
0	H	0.690821	0.234837	0.616689
0	C	0.781495	0.205167	0.519525
0	H	0.742086	0.199915	0.611123
0	O	0.696474	0.198235	0.538476
0	O	0.653452	0.199015	0.537047
0	C	0.710291	0.18849	0.531584
0	O	0.671783	0.163978	0.531963
0	H	0.749454	0.179656	0.526982
0	C	0.760965	0.20815	0.517279
0	C	0.64822	0.139476	0.527609
0	O	0.665438	0.183678	0.598459
0	C	0.687706	0.238985	0.585153
0	C	0.755976	0.227259	0.511657
0	O	0.693056	0.172774	0.569373
0	C	0.722022	0.219846	0.518343
0	C	0.7729	0.204135	0.611504
0	H	0.772666	0.170272	0.565606
0	C	0.703538	0.138515	0.602525
0	C	0.755803	0.195148	0.604275
0	H	0.643437	0.202203	0.547578
0	O	0.653425	0.172371	0.569608
0	O	0.733278	0.164876	0.567385
0	O	0.720473	0.129193	0.544852
0	O	0.709225	0.136459	0.584729
0	C	0.773527	0.179748	0.577858
0	C	0.736579	0.232742	0.511549
0	C	0.746209	0.194312	0.522022
0	C	0.652	0.176611	0.587817
0	C	0.667828	0.146887	0.536459
0	C	0.726222	0.200938	0.52207
0	O	0.678517	0.139267	0.549367
0	H	0.708605	0.225524	0.52031
0	O	0.653945	0.221406	0.50861
0	C	0.642312	0.146337	0.50926
0	Fe	0.706819	0.15239	0.558408
0	C	0.68595	0.218069	0.58177
0	C	0.632962	0.129884	0.539864
0	O	0.710444	0.169535	0.532813
0	H	0.629818	0.146018	0.585188
0	Fe	0.67411	0.185433	0.553074
0	H	0.647369	0.188615	0.529335
0	O	0.691786	0.152339	0.607484
0	C	0.736461	0.174221	0.582843
0	O	0.723618	0.176218	0.596246
0	H	0.649961	0.156841	0.500853
0	Fe	0.69508	0.180158	0.596741
0	C	0.634127	0.17389	0.596368
0	O	0.699141	0.20763	0.588919
0	C	0.756019	0.182696	0.588275
0	O	0.673173	0.211085	0.570554
0	H	0.766658	0.237235	0.507001
0	H	0.634279	0.203337	0.609289
0	C	0.645702	0.23977	0.509855
0	O	0.635629	0.244135	0.524903
0	C	0.692385	0.243566	0.60412
0	H	0.739635	0.14364	0.617991
0	H	0.727731	0.121459	0.555016
0	C	0.713024	0.12724	0.618562
0	O	0.57874	0.368148	0.614164
0	H	0.453728	0.328954	0.513192
0	O	0.454962	0.324119	0.616782
0	H	0.559989	0.30813	0.496207
0	H	0.472021	0.291207	0.609088
0	C	0.454787	0.369021	0.59524
0	C	0.48066	0.361935	0.618085
0	H	0.587324	0.250293	0.565515
0	H	0.590078	0.262734	0.585421
0	O	0.501129	0.364371	0.550575
0	O	0.548808	0.355386	0.610922
0	H	0.487948	0.357978	0.55135
0	C	0.587492	0.305735	0.609246
0	O	0.580196	0.255735	0.577321
0	C	0.585703	0.266401	0.503781
0	O	0.570473	0.336268	0.509675
0	C	0.575725	0.283672	0.508203
0	H	0.556461	0.339353	0.511951
0	O	0.515581	0.289765	0.599931
0	O	0.555615	0.309786	0.599258
0	O	0.604609	0.322454	0.522428
0	O	0.570896	0.276291	0.541909
0	O	0.559297	0.30331	0.530785
0	C	0.568534	0.287524	0.527771
0	Fe	0.530941	0.30213	0.539241
0	O	0.502579	0.301186	0.546343
0	C	0.493417	0.310172	0.559407
0	O	0.502301	0.319065	0.57256
0	O	0.549304	0.274171	0.599139
0	O	0.529287	0.272173	0.534752
0	Fe	0.559334	0.276895	0.570015
0	O	0.539191	0.297085	0.565227
0	Fe	0.529291	0.313532	0.586264
0	O	0.534512	0.332414	0.543513
0	O	0.542148	0.335862	0.574483
0	C	0.543664	0.341317	0.557257
0	O	0.540363	0.256241	0.561625
0	O	0.577511	0.298975	0.57802
0	C	0.532357	0.256906	0.545029
0	C	0.573309	0.3068	0.593527
0	F	0.522561	0.307234	0.514646
0	H	0.59015	0.25722	0.51527
0	C	0.471479	0.31016	0.558103
0	H	0.472214	0.296763	0.529089
0	H	0.577646	0.348409	0.540813
0	H	0.605653	0.311106	0.513331
0	H	0.613315	0.318256	0.532998
0	H	0.547562	0.260265	0.601196
0	C	0.606879	0.311416	0.607362
0	C	0.464729	0.355704	0.607019
0	C	0.463866	0.303338	0.541518
0	H	0.466217	0.32333	0.585872
0	H	0.611103	0.319553	0.5949
0	C	0.569795	0.361725	0.542701
0	C	0.553414	0.360272	0.554203
0	O	0.519969	0.330188	0.609898
0	C	0.459334	0.316444	0.573632
0	H	0.506877	0.284564	0.58998
0	H	0.505863	0.36215	0.536813
0	H	0.506253	0.332491	0.606567
0	H	0.507994	0.295272	0.610833
0	Fe	0.619338	0.344121	0.50675
0	O	0.602943	0.364138	0.519393
0	O	0.45353	0.328354	0.498814
0	H	0.582341	0.353037	0.618857
0	C	0.453479	0.342205	0.617885
0	O	0.4624	0.283322	0.617435
0	H	0.650808	0.354708	0.525779
0	H	0.684798	0.24918	0.555286
0	C	0.777411	0.286525	0.562818
0	O	0.682606	0.269816	0.506414
0	H	0.716309	0.285571	0.593725
0	C	0.697088	0.270813	0.574
0	C	0.775629	0.288742	0.582776
0	C	0.685599	0.344174	0.506725
0	Fe	0.705472	0.285861	0.514046
0	H	0.764578	0.299129	0.588339
0	O	0.724264	0.33595	0.564889
0	O	0.694104	0.283073	0.54151
0	F	0.776803	0.289807	0.497061
0	H	0.738434	0.339437	0.566114
0	O	0.715601	0.295832	0.560544
0	O	0.746387	0.264561	0.501848
0	O	0.647258	0.319021	0.599168
0	C	0.688117	0.252979	0.569978
0	Fe	0.726317	0.316446	0.54202
0	C	0.733987	0.253888	0.511015
0	C	0.755268	0.355743	0.503702
0	C	0.694184	0.361474	0.512738
0	H	0.644926	0.334368	0.53411
0	C	0.774414	0.361804	0.503695
0	H	0.721301	0.327968	0.576839
0	C	0.76434	0.29429	0.547662
0	C	0.641599	0.310471	0.616193
0	O	0.762789	0.284378	0.532059
0	C	0.705416	0.273945	0.592263
0	H	0.685962	0.256425	0.512237
0	C	0.780806	0.278067	0.617405
0	C	0.704256	0.259268	0.606577
0	O	0.753714	0.308842	0.551493
0	H	0.705847	0.360829	0.523875
0	C	0.640576	0.274135	0.497937
0	O	0.761563	0.322723	0.511832
0	O	0.637281	0.320435	0.497946
0	H	0.62874	0.276721	0.508391
0	C	0.751354	0.337504	0.514486
0	Fe	0.752819	0.293899	0.507804
0	C	0.702559	0.283673	0.557753
0	O	0.692112	0.311097	0.506166
0	O	0.736549	0.33781	0.524848
0	O	0.639625	0.346974	0.530773
0	O	0.71924	0.261144	0.519547
0	O	0.698477	0.325989	0.533819
0	O	0.728393	0.299933	0.520518
0	C	0.691558	0.32615	0.516533
0	H	0.662531	0.321111	0.601449
0	H	0.672929	0.275141	0.515884
0	O	0.490634	0.144783	0.663857
0	O	0.569226	0.134239	0.70764
0	O	0.566904	0.197587	0.64874
0	O	0.57897	0.190523	0.678528
0	C	0.561652	0.153838	0.67502
0	C	0.536212	0.169124	0.656385
0	C	0.548613	0.138501	0.680745
0	C	0.523331	0.153532	0.661537
0	C	0.529564	0.138281	0.67354
0	C	0.555266	0.168852	0.664346
0	C	0.502371	0.157405	0.65803
0	C	0.56777	0.186458	0.664113
0	O	0.578781	0.231236	0.706863
0	C	0.591273	0.189411	0.735756
0	C	0.584332	0.208881	0.731495
0	Fe	0.461963	0.144071	0.671051
0	Fe	0.575033	0.226192	0.644123
0	O	0.464922	0.207174	0.688294
0	C	0.508192	0.233846	0.671337
0	C	0.476067	0.214676	0.675866
0	C	0.491488	0.228717	0.682661
0	O	0.476334	0.209916	0.657757
0	O	0.471666	0.149474	0.69803
0	C	0.477186	0.160228	0.729228
0	C	0.492402	0.146997	0.731355
0	C	0.466574	0.161122	0.711226
0	H	0.50936	0.227945	0.657025
0	H	0.492884	0.134077	0.72159
0	H	0.577476	0.152585	0.677764
0	H	0.532032	0.181742	0.646527
0	C	0.555995	0.126719	0.697089
0	O	0.549139	0.231753	0.656646
0	O	0.457675	0.17255	0.666528
0	O	0.589993	0.150448	0.737678
0	H	0.518967	0.126751	0.678433
0	C	0.492585	0.234305	0.70266
0	H	0.481659	0.228094	0.712539
0	O	0.606053	0.144029	0.650304
0	H	0.599693	0.18189	0.72563
0	O	0.4968	0.173593	0.650766
0	C	0.588994	0.217573	0.712942
0	O	0.591001	0.228081	0.667546
0	Fe	0.469314	0.184145	0.643618
0	O	0.60688	0.193184	0.647577
0	Fe	0.604438	0.204095	0.675825
0	O	0.603855	0.212023	0.703862
0	H	0.597686	0.158051	0.647691
0	C	0.604206	0.200919	0.631106
0	O	0.598844	0.218481	0.628151
0	C	0.465638	0.139718	0.629987
0	O	0.610777	0.129479	0.710363
0	O	0.576543	0.132554	0.639353
0	C	0.592922	0.129205	0.648158
0	H	0.464686	0.187927	0.740419
0	C	0.476295	0.177034	0.741195
0	O	0.525807	0.124761	0.732156
0	O	0.467772	0.157887	0.626336
0	Fe	0.586794	0.122915	0.726916
0	H	0.564799	0.231514	0.740815
0	O	0.61721	0.17786	0.684231
0	O	0.453674	0.173931	0.708836
0	C	0.525194	0.243019	0.679994
0	C	0.508683	0.243325	0.711198
0	C	0.545139	0.242899	0.670467
0	C	0.571473	0.217707	0.744311
0	O	0.453602	0.135092	0.643525
0	H	0.456434	0.234504	0.743512
0	H	0.626512	0.17426	0.674093
0	H	0.62488	0.181174	0.695666
0	F	0.783511	0.171047	0.626872
0	O	0.78094	0.183384	0.664388
0	C	0.747212	0.223441	0.740916
0	H	0.74439	0.157282	0.686726
0	C	0.756126	0.131889	0.654577
0	Fe	0.775378	0.138644	0.692431
0	H	0.712167	0.210571	0.668983
0	C	0.76181	0.228589	0.687812
0	H	0.641128	0.209411	0.665701
0	C	0.746799	0.221597	0.720917
0	C	0.76204	0.229306	0.709249
0	O	0.744978	0.226913	0.680143
0	H	0.702976	0.21873	0.65047
0	F	0.694558	0.174146	0.727501
0	H	0.737189	0.211095	0.714829
0	H	0.675649	0.133099	0.692798
0	O	0.753577	0.216339	0.638893
0	C	0.769639	0.217857	0.628595
0	H	0.758903	0.173684	0.692423
0	O	0.757314	0.162074	0.684391
0	O	0.631356	0.217707	0.672941
0	O	0.76284	0.148273	0.649443
0	O	0.714344	0.212027	0.654769
0	O	0.777295	0.23199	0.677426
0	C	0.73157	0.13234	0.626012
0	O	0.666237	0.125542	0.700975
0	H	0.653297	0.127599	0.693723
0	O	0.751219	0.128978	0.710692
0	C	0.737987	0.124451	0.644925
0	O	0.762624	0.123446	0.670003
0	O	0.781695	0.231275	0.633106
0	O	0.717571	0.204723	0.743777
0	H	0.674216	0.203618	0.734404
0	Fe	0.735585	0.234926	0.653826
0	C	0.774995	0.241878	0.717138
0	H	0.621464	0.128484	0.720127
0	H	0.783308	0.145946	0.728355
0	O	0.72445	0.243491	0.627778
0	F	0.697007	0.187256	0.62297
0	H	0.705481	0.131936	0.741322
0	H	0.744988	0.141781	0.71502
0	H	0.742127	0.122301	0.702145
0	O	0.507689	0.366478	0.737725
0	C	0.611289	0.361429	0.726039
0	C	0.582253	0.295677	0.625876
0	H	0.567932	0.28949	0.628264
0	C	0.458055	0.306089	0.68761
0	C	0.524244	0.248174	0.699665
0	C	0.510044	0.247347	0.732632
0	O	0.507129	0.343841	0.671654
0	O	0.513854	0.347064	0.702518
0	C	0.503746	0.339157	0.689099
0	O	0.541224	0.346226	0.647104
0	H	0.555821	0.346595	0.649069
0	O	0.558345	0.253048	0.678665
0	H	0.536526	0.254989	0.706351
0	C	0.476427	0.314247	0.683168
0	C	0.486458	0.32702	0.695192
0	C	0.479484	0.32886	0.713934
0	H	0.486265	0.339659	0.724145
0	H	0.482822	0.31241	0.668408
0	O	0.494929	0.253183	0.741715
0	H	0.536523	0.333724	0.651901
0	O	0.581566	0.255949	0.637864
0	Fe	0.587731	0.249593	0.685611
0	F	0.585466	0.270331	0.702583
0	C	0.591601	0.268536	0.647433
0	C	0.596254	0.287399	0.6379
0	O	0.596204	0.267847	0.665236
0	O	0.548401	0.359996	0.685474
0	C	0.461784	0.319511	0.719931
0	C	0.608997	0.359372	0.706577
0	C	0.589405	0.3599	0.698421
0	H	0.587285	0.360131	0.682816
0	O	0.526931	0.246324	0.741209
0	C	0.573139	0.362129	0.710005
0	H	0.4871	0.3503	0.62684
0	Fe	0.5279	0.366274	0.664989
0	O	0.617691	0.248444	0.69382
0	H	0.610083	0.351393	0.640844
0	H	0.564015	0.364098	0.739328
0	H	0.513227	0.352788	0.739015
0	C	0.615644	0.293634	0.636306
0	C	0.553083	0.36668	0.701943
0	H	0.519097	0.321981	0.621513
0	O	0.457038	0.344995	0.742464
0	C	0.595404	0.365224	0.738312
0	O	0.453055	0.305211	0.654245
0	C	0.576766	0.364965	0.730153
0	H	0.469817	0.282015	0.629872
0	H	0.786088	0.248808	0.708614
0	H	0.622867	0.349225	0.622922
0	C	0.718034	0.259485	0.622292
0	O	0.653972	0.307532	0.629485
0	O	0.622706	0.361578	0.675896
0	C	0.773149	0.247652	0.736844
0	H	0.619901	0.259343	0.702346
0	O	0.623498	0.347613	0.636395
0	C	0.781747	0.290527	0.674437
0	Fe	0.783722	0.251536	0.654845
0	H	0.713159	0.245173	0.679551
0	C	0.626419	0.359868	0.693701
0	O	0.643509	0.357254	0.69944
0	C	0.778321	0.315732	0.701772
0	O	0.724189	0.275787	0.628931
0	H	0.627773	0.288168	0.645235
0	F	0.740849	0.309532	0.64204
0	H	0.664767	0.340163	0.650336
0	H	0.625419	0.249922	0.681781
0	H	0.722	0.337683	0.689067
0	O	0.657746	0.344259	0.661989
0	O	0.732236	0.349222	0.687665
0	Fe	0.7475	0.284152	0.646786
0	O	0.719262	0.358016	0.716622
0	H	0.764726	0.308611	0.705982
0	H	0.64816	0.333909	0.665381
0	O	0.771142	0.296236	0.660774
0	H	0.74277	0.286642	0.681924
0	C	0.732881	0.360316	0.704319
0	O	0.731959	0.286305	0.673137
0	H	0.727939	0.30005	0.674275
0	O	0.715669	0.252997	0.667108
0	O	0.755249	0.256668	0.652049
0	O	0.684509	0.355066	0.683919
0	H	0.686011	0.34285	0.691382
0	F	0.674621	0.368204	0.720536
0	H	0.62547	0.362889	0.731595
0	C	0.620795	0.30616	0.620828
0	O	0.763297	0.283732	0.621176
0	Fe	0.640102	0.366825	0.653051
0	C	0.454478	0.149415	0.796077
0	H	0.563903	0.120254	0.804808
0	H	0.542736	0.128877	0.799767
0	C	0.5227	0.135363	0.747107
0	C	0.507357	0.150371	0.744688
0	C	0.470848	0.149181	0.864625
0	O	0.459821	0.152875	0.776689
0	H	0.489251	0.192737	0.852486
0	C	0.605927	0.128388	0.858768
0	C	0.584145	0.179507	0.7524
0	H	0.507328	0.150698	0.85075
0	O	0.569837	0.149929	0.764563
0	O	0.551703	0.234189	0.771895
0	O	0.535396	0.206352	0.780641
0	C	0.57178	0.189239	0.765273
0	C	0.565672	0.207831	0.761442
0	C	0.582026	0.158243	0.752129
0	C	0.549759	0.216129	0.771933
0	O	0.556765	0.129749	0.797165
0	O	0.532292	0.133791	0.762954
0	O	0.487116	0.214057	0.755671
0	O	0.494999	0.199436	0.784056
0	C	0.506215	0.166753	0.757151
0	C	0.490478	0.180061	0.755409
0	C	0.490973	0.199003	0.765515
0	O	0.471131	0.227493	0.790206
0	Fe	0.512878	0.218966	0.797887
0	F	0.515747	0.199647	0.817852
0	O	0.490107	0.2329	0.814689
0	C	0.47295	0.234574	0.807072
0	H	0.519069	0.17025	0.764825
0	H	0.566564	0.182605	0.778544
0	Fe	0.595711	0.169487	0.847172
0	O	0.574755	0.165316	0.825597
0	O	0.586802	0.19838	0.847318
0	C	0.598474	0.213136	0.846681
0	H	0.56862	0.17771	0.822805
0	H	0.579116	0.161136	0.812459
0	C	0.488916	0.151969	0.806073
0	C	0.496417	0.148763	0.839857
0	C	0.477388	0.144367	0.845087
0	C	0.502236	0.151523	0.820783
0	H	0.491896	0.156368	0.791597
0	C	0.570308	0.233294	0.832074
0	C	0.590305	0.231925	0.839264
0	H	0.560494	0.220798	0.834035
0	O	0.535147	0.158968	0.831158
0	C	0.522725	0.157447	0.81701
0	O	0.528287	0.164077	0.798628
0	H	0.541616	0.171522	0.800242
0	O	0.511427	0.237313	0.77798
0	C	0.469778	0.147742	0.810592
0	O	0.603908	0.140312	0.844446
0	O	0.479133	0.201058	0.858379
0	Fe	0.561024	0.123336	0.76869
0	C	0.463782	0.142822	0.829778
0	O	0.535291	0.234231	0.811162
0	H	0.610215	0.184957	0.816698
0	O	0.61588	0.212219	0.852921
0	H	0.468597	0.2015	0.849189
0	Fe	0.485309	0.240621	0.767352
0	O	0.574049	0.162482	0.867172
0	O	0.616425	0.17647	0.826335
0	O	0.614549	0.173404	0.868397
0	O	0.457567	0.243622	0.754829
0	C	0.664614	0.120693	0.787612
0	H	0.779477	0.242438	0.798728
0	H	0.680197	0.120569	0.792384
0	C	0.674073	0.149182	0.8685
0	H	0.785922	0.171149	0.864991
0	Fe	0.63464	0.193775	0.868651
0	H	0.620616	0.164508	0.81885
0	C	0.759596	0.237405	0.749183
0	C	0.677637	0.129021	0.862662
0	C	0.71597	0.124325	0.750024
0	C	0.740689	0.123239	0.774411
0	O	0.672582	0.197837	0.747988
0	O	0.651806	0.204208	0.809314
0	C	0.727475	0.228301	0.846882
0	H	0.657029	0.193621	0.84271
0	C	0.683412	0.163277	0.856749
0	H	0.641865	0.200404	0.799978
0	O	0.730539	0.162448	0.783475
0	O	0.7008	0.191655	0.78053
0	Fe	0.725853	0.190732	0.793221
0	C	0.733837	0.209905	0.751951
0	O	0.723221	0.166179	0.753145
0	O	0.714604	0.17675	0.818179
0	O	0.681248	0.15845	0.761772
0	H	0.631054	0.145007	0.759959
0	O	0.660817	0.173516	0.781407
0	C	0.697777	0.172381	0.825395
0	O	0.669041	0.220344	0.777226
0	O	0.75305	0.188301	0.80615
0	C	0.666896	0.157614	0.773861
0	H	0.734075	0.214724	0.843467
0	H	0.755256	0.174528	0.808919
0	O	0.722472	0.218763	0.804877
0	O	0.682627	0.176657	0.816394
0	H	0.761071	0.190892	0.793609
0	C	0.701761	0.139794	0.839049
0	Fe	0.69787	0.182785	0.752886
0	C	0.692401	0.124061	0.849024
0	H	0.713912	0.136806	0.829381
0	H	0.649803	0.218958	0.809754
0	H	0.751446	0.129416	0.785046
0	O	0.646463	0.183666	0.843387
0	Fe	0.677203	0.197	0.795574
0	C	0.727384	0.133877	0.764399
0	O	0.738094	0.2041	0.769498
0	C	0.727185	0.155254	0.767416
0	C	0.713597	0.235266	0.833591
0	C	0.709279	0.22374	0.816147
0	C	0.696871	0.158639	0.842422
0	O	0.691441	0.217712	0.813888
0	C	0.63743	0.13435	0.769929
0	H	0.672521	0.231787	0.784594
0	H	0.655048	0.221009	0.776578
0	C	0.656172	0.138003	0.778462
0	H	0.677853	0.178233	0.857352
0	C	0.732383	0.238335	0.864085
0	H	0.758543	0.240477	0.764733
0	O	0.579993	0.36783	0.810385
0	C	0.576105	0.31902	0.867122
0	H	0.534848	0.260787	0.857643
0	O	0.455996	0.327547	0.836754
0	O	0.454292	0.307011	0.800149
0	Fe	0.457213	0.362559	0.766125
0	O	0.547662	0.266024	0.864653
0	H	0.548741	0.357953	0.785863
0	O	0.609974	0.364109	0.79941
0	C	0.455263	0.24545	0.813872
0	H	0.566068	0.272399	0.766886
0	H	0.551116	0.286338	0.762617
0	C	0.455675	0.265787	0.811276
0	C	0.545751	0.249763	0.809492
0	Fe	0.532162	0.254496	0.768758
0	O	0.554523	0.273125	0.758539
0	O	0.513166	0.276792	0.765886
0	O	0.484897	0.267512	0.780041
0	O	0.54177	0.263338	0.79642
0	C	0.498476	0.27997	0.777092
0	O	0.481038	0.347973	0.774508
0	O	0.474989	0.34663	0.805757
0	C	0.485582	0.343792	0.790824
0	C	0.514096	0.307718	0.841676
0	C	0.600525	0.34183	0.824411
0	C	0.586747	0.335756	0.837943
0	C	0.501301	0.314405	0.78151
0	C	0.507006	0.292994	0.809395
0	C	0.501593	0.330525	0.794097
0	C	0.509974	0.309532	0.821396
0	C	0.508463	0.327934	0.813242
0	C	0.501973	0.295778	0.789839
0	H	0.50728	0.278166	0.81545
0	H	0.507761	0.340099	0.823322
0	H	0.495883	0.315699	0.766642
0	H	0.469907	0.27251	0.814878
0	C	0.577083	0.26487	0.818446
0	C	0.596291	0.263977	0.825734
0	C	0.564216	0.249491	0.820719
0	H	0.573284	0.277613	0.808888
0	H	0.570638	0.341667	0.837413
0	C	0.60261	0.247245	0.836197
0	O	0.50417	0.318139	0.852686
0	O	0.528904	0.298013	0.847532
0	O	0.604531	0.295635	0.807711
0	C	0.592162	0.323774	0.853822
0	C	0.612282	0.319445	0.85687
0	C	0.610535	0.279596	0.818622
0	C	0.596677	0.358762	0.810575
0	H	0.617705	0.24709	0.841681
0	H	0.617877	0.304063	0.805059
0	H	0.46277	0.315131	0.836321
0	O	0.51763	0.355242	0.867174
0	O	0.566367	0.302838	0.865001
0	O	0.719866	0.333502	0.823945
0	C	0.648101	0.326389	0.846652
0	Fe	0.684735	0.353083	0.838825
0	H	0.730084	0.270637	0.766337
0	C	0.728003	0.366447	0.846355
0	H	0.682288	0.25219	0.748888
0	O	0.767951	0.275479	0.784345
0	C	0.70552	0.285907	0.854121
0	H	0.68309	0.305984	0.787703
0	O	0.693292	0.291994	0.867413
0	C	0.723556	0.256467	0.867055
0	C	0.704485	0.253599	0.837196
0	C	0.620381	0.337146	0.826779
0	C	0.626118	0.326388	0.843473
0	O	0.765349	0.30893	0.780851
0	O	0.780561	0.322912	0.746625
0	C	0.710315	0.309613	0.801675
0	C	0.723893	0.282292	0.77495
0	C	0.758215	0.291375	0.783423
0	H	0.742092	0.311531	0.809145
0	O	0.672182	0.28011	0.76267
0	C	0.703625	0.285637	0.776601
0	O	0.628619	0.278791	0.823097
0	Fe	0.722415	0.325373	0.85152
0	F	0.74822	0.318435	0.846507
0	H	0.692703	0.258316	0.827826
0	O	0.689528	0.334457	0.815545
0	C	0.697137	0.300467	0.788769
0	C	0.689854	0.274535	0.763976
0	O	0.71193	0.366968	0.835766
0	O	0.65696	0.341358	0.840561
0	C	0.710569	0.264574	0.853527
0	O	0.730974	0.352723	0.859409
0	H	0.630037	0.342477	0.816023
0	C	0.730132	0.304257	0.800417
0	O	0.782252	0.347887	0.778783
0	H	0.776015	0.345915	0.791844
0	O	0.655986	0.312632	0.857251
0	O	0.695811	0.25858	0.753254
0	C	0.706146	0.326499	0.814481
0	C	0.736985	0.290902	0.787214
0	O	0.695055	0.332745	0.855643
0	O	0.715344	0.297436	0.843648
0	O	0.496381	0.191044	0.895399
0	O	0.496661	0.179414	0.92534
0	C	0.503429	0.17939	0.908302
0	Fe	0.566233	0.137122	0.976609
0	O	0.577921	0.162055	0.966767
0	C	0.586074	0.177278	0.972662
0	C	0.538625	0.173607	0.897222
0	C	0.517495	0.146774	0.907891
0	C	0.553065	0.15897	0.893486
0	C	0.53202	0.133174	0.903213
0	C	0.549621	0.139874	0.896891
0	C	0.520669	0.167139	0.905292
0	H	0.503327	0.141511	0.91204
0	C	0.60407	0.189072	0.943663
0	C	0.589293	0.192574	0.957826
0	C	0.574165	0.204972	0.953256
0	H	0.561334	0.206522	0.963072
0	C	0.589641	0.212126	0.921809
0	C	0.573596	0.214285	0.934682
0	O	0.586838	0.164095	0.897534
0	H	0.588927	0.218928	0.908345
0	C	0.555602	0.223367	0.927115
0	O	0.539079	0.223856	0.938415
0	C	0.604953	0.199166	0.925647
0	F	0.556986	0.132357	0.950086
0	H	0.611562	0.145549	0.926353
0	H	0.560403	0.129541	0.893739
0	C	0.572501	0.162997	0.885699
0	O	0.540488	0.150789	0.981295
0	H	0.542569	0.188684	0.898231
0	C	0.463439	0.221813	0.908995
0	Fe	0.468856	0.186296	0.882563
0	O	0.471598	0.152885	0.940579
0	F	0.475537	0.187639	0.956738
0	Fe	0.46729	0.180761	0.932043
0	O	0.466222	0.210915	0.923751
0	O	0.459792	0.172492	0.905497
0	O	0.469457	0.131207	0.909628
0	O	0.611626	0.143473	0.980774
0	H	0.46651	0.149346	0.95347
0	O	0.460423	0.214463	0.892241
0	C	0.607116	0.128811	0.97032
0	O	0.601588	0.133547	0.875939
0	Fe	0.614181	0.15505	0.890229
0	O	0.591845	0.179266	0.989959
0	H	0.52977	0.234935	0.932722
0	O	0.554755	0.230269	0.909673
0	O	0.612884	0.136277	0.914989
0	H	0.616121	0.178909	0.947579
0	H	0.472482	0.12389	0.897982
0	H	0.599746	0.129505	0.91401
0	O	0.561082	0.236091	0.983456
0	H	0.549309	0.229868	0.992219
0	C	0.618765	0.193431	0.909328
0	O	0.589993	0.12197	0.970473
0	O	0.480991	0.161868	0.872706
0	C	0.465509	0.243863	0.91033
0	C	0.509044	0.143779	0.994391
0	O	0.455101	0.144061	0.872124
0	H	0.464422	0.121758	0.918642
0	O	0.621935	0.204367	0.894459
0	O	0.64191	0.145743	0.882535
0	Fe	0.687173	0.169225	0.975101
0	H	0.652861	0.215565	0.986286
0	O	0.749967	0.207488	0.931403
0	O	0.751832	0.222452	0.890867
0	H	0.750051	0.212603	0.945275
0	O	0.674414	0.144298	0.967724
0	O	0.662968	0.177968	0.989196
0	O	0.625255	0.176228	0.90897
0	O	0.730045	0.182961	0.986282
0	H	0.675019	0.194751	0.953976
0	H	0.745796	0.145762	0.972001
0	C	0.718128	0.196638	0.982639
0	C	0.709512	0.230339	0.974225
0	C	0.723842	0.217138	0.980746
0	C	0.656072	0.156922	0.878713
0	O	0.664803	0.147365	0.926203
0	O	0.71083	0.16262	0.958226
0	H	0.660624	0.177488	0.949435
0	Fe	0.769569	0.225315	0.917174
0	O	0.674812	0.181076	0.950741
0	H	0.695271	0.224782	0.969358
0	O	0.699457	0.193701	0.982068
0	H	0.736637	0.210228	0.926716
0	O	0.65335	0.174596	0.883986
0	C	0.673945	0.130799	0.979976
0	H	0.635321	0.143893	0.947888
0	H	0.711389	0.171294	0.947154
0	O	0.7343	0.140046	0.978659
0	C	0.635799	0.127986	0.948631
0	H	0.736701	0.126544	0.982878
0	H	0.70418	0.127031	0.954924
0	C	0.740616	0.224582	0.989483
0	C	0.663477	0.128244	0.92487
0	C	0.751712	0.233494	0.87532
0	H	0.686505	0.129081	0.907529
0	O	0.783901	0.229642	0.944521
0	F	0.653668	0.213611	0.869828
0	O	0.767495	0.242164	0.870024
0	O	0.533231	0.249927	0.970576
0	F	0.481632	0.340906	0.874807
0	C	0.551971	0.247691	0.970192
0	H	0.572736	0.363334	0.908816
0	H	0.49532	0.24602	0.894773
0	H	0.587805	0.257486	0.975233
0	Fe	0.539325	0.292925	0.874665
0	Fe	0.50546	0.330595	0.879919
0	O	0.501911	0.347246	0.904741
0	C	0.512826	0.349274	0.919123
0	O	0.528237	0.338136	0.92139
0	O	0.549393	0.284029	0.900797
0	O	0.560538	0.311548	0.916955
0	C	0.557779	0.292973	0.914777
0	O	0.494149	0.30559	0.893152
0	O	0.531995	0.319537	0.884624
0	Fe	0.55	0.334433	0.900539
0	O	0.512842	0.279977	0.883989
0	C	0.498327	0.287414	0.892941
0	C	0.586455	0.285253	0.934222
0	C	0.582465	0.264647	0.962252
0	C	0.567188	0.281285	0.929509
0	C	0.563152	0.260978	0.957912
0	C	0.554936	0.270337	0.941838
0	C	0.594028	0.276916	0.950893
0	H	0.538831	0.270416	0.939352
0	H	0.59464	0.295326	0.925613
0	O	0.571901	0.331218	0.880732
0	C	0.482318	0.275113	0.901962
0	C	0.482218	0.253841	0.902091
0	C	0.466886	0.285392	0.910441
0	O	0.543899	0.35994	0.88707
0	O	0.569658	0.351701	0.917183
0	H	0.466451	0.301288	0.909724
0	C	0.613551	0.281321	0.958137
0	H	0.582701	0.345751	0.919339
0	O	0.614066	0.284285	0.976778
0	H	0.540452	0.362945	0.941239
0	C	0.511593	0.368501	0.93188
0	C	0.531957	0.365995	0.873839
0	H	0.548881	0.257546	0.876533
0	H	0.61804	0.314306	0.86954
0	H	0.727697	0.265372	0.879188
0	F	0.652155	0.246416	0.944824
0	C	0.710934	0.250634	0.978591
0	O	0.750334	0.248532	0.922486
0	H	0.656641	0.310326	0.903224
0	O	0.704671	0.322893	0.979648
0	H	0.671457	0.341209	0.972552
0	C	0.724405	0.309536	0.91268
0	C	0.75327	0.266599	0.927472
0	O	0.763762	0.330103	0.927151
0	C	0.717793	0.317249	0.894225
0	O	0.664221	0.333058	0.982533
0	C	0.756758	0.362528	0.921608
0	Fe	0.679217	0.306423	0.980063
0	O	0.677531	0.25517	0.974064
0	C	0.718973	0.278813	0.937645
0	O	0.654626	0.290381	0.97842
0	H	0.748852	0.294319	0.903303
0	H	0.76201	0.32368	0.894123
0	C	0.694033	0.263147	0.976507
0	C	0.704829	0.29406	0.93529
0	H	0.70116	0.323083	0.928689
0	O	0.677466	0.309128	0.951281
0	H	0.770199	0.359428	0.950768
0	C	0.762029	0.343545	0.914935
0	O	0.629407	0.279971	0.947884
0	H	0.715316	0.265421	0.944732
0	O	0.771377	0.272488	0.930546
0	H	0.666641	0.341152	0.899463
0	C	0.73721	0.280766	0.927338
0	O	0.696142	0.281588	0.978134
0	C	0.728412	0.258367	0.985336
0	C	0.738472	0.295026	0.914422
0	C	0.71117	0.311022	0.927672
0	O	0.727804	0.315161	0.879133
0	C	0.684088	0.294066	0.942519
0	Fe	0.652995	0.267774	0.960764
0	O	0.700967	0.32458	0.893128
0	O	0.673706	0.278672	0.941094
0	O	0.665028	0.30111	0.895573
0	O	0.76324	0.339547	0.895378
0	O	0.665121	0.341923	0.884736
0	O	0.636485	0.251779	0.979542
0	H	0.674672	0.296463	0.905768
0	H	0.651249	0.338644	0.882277
0	O	0.62857	0.323211	0.987434
0	H	0.702878	0.333114	0.989418
0	Fe	0.679922	0.31809	0.874605
0	H	0.715031	0.315487	0.986218
0	H	0.728701	0.274335	0.986827
0	C	0.763008	0.368601	0.940137
0	C	0.741762	0.244806	0.992381
0	H	0.785205	0.245853	0.982966
0	H	0.502213	0.174574	0.998107
0	C	0.496103	0.160009	0.996365
0	H	0.456099	0.134404	0.00953281
0	C	0.602424	0.121207	0.0327497
0	H	0.534168	0.121106	0.0451601
0	H	0.477065	0.22456	0.00241192
0	C	0.483309	0.121604	0.00340334
0	O	0.463294	0.228633	0.998526
0	C	0.530001	0.145933	0.996294
0	C	0.457115	0.207595	0.0534848
0	C	0.476794	0.156033	0.00235787
0	O	0.460126	0.186342	0.999503
0	H	0.465509	0.200767	0.094137
0	C	0.470313	0.137	0.00488037
0	O	0.610356	0.130833	0.0201652
0	O	0.574871	0.141547	0.00303961
0	C	0.465916	0.172335	0.0101234
0	C	0.466705	0.220095	0.0681544
0	C	0.469766	0.214644	0.0881236
0	O	0.562454	0.160532	0.0394953
0	O	0.593873	0.167471	0.0336049
0	C	0.579209	0.167775	0.044916
0	Fe	0.600727	0.154909	0.00643862
0	C	0.583865	0.15545	0.0790989
0	C	0.592492	0.192524	0.0936919
0	C	0.581614	0.171459	0.0660414
0	C	0.586575	0.190313	0.0734727
0	C	0.589068	0.157043	0.098597
0	H	0.584059	0.14114	0.0729902
0	H	0.586479	0.203096	0.0640673
0	C	0.470781	0.240455	0.0631933
0	O	0.462304	0.172286	0.0281035
0	O	0.602042	0.22715	0.0935419
0	C	0.596321	0.138627	0.109571
0	C	0.603891	0.209826	0.100971
0	C	0.592168	0.176036	0.10618
0	Fe	0.56172	0.133528	0.0267864
0	C	0.477667	0.228537	0.102664
0	O	0.536609	0.141127	0.0129266
0	O	0.459537	0.21207	0.0356176
0	O	0.608699	0.127105	0.101101
0	O	0.617907	0.206019	0.112579
0	O	0.586894	0.126545	0.0412191
0	C	0.50236	0.124761	0.998257
0	O	0.546895	0.124558	0.0514622
0	H	0.469317	0.243998	0.0479846
0	H	0.459914	0.239761	0.00672344
0	H	0.543599	0.136396	0.0600394
0	O	0.744352	0.128499	0.117896
0	H	0.635798	0.15416	0.0063072
0	H	0.630236	0.162286	0.0252213
0	O	0.699842	0.157827	0.997415
0	H	0.751597	0.214591	0.994802
0	O	0.666708	0.133373	0.996716
0	H	0.758325	0.167015	0.020863
0	H	0.762184	0.146364	0.0112255
0	C	0.731661	0.124296	0.104575
0	H	0.722258	0.228615	0.0978028
0	C	0.751282	0.226782	0.0709103
0	O	0.758287	0.226461	0.0537771
0	C	0.634953	0.218172	0.0405883
0	C	0.70022	0.190849	0.0725439
0	O	0.643609	0.177012	0.097349
0	H	0.651796	0.175138	0.0849859
0	O	0.668978	0.207638	0.08802
0	O	0.62833	0.16554	0.0107573
0	Fe	0.644016	0.206229	0.101052
0	H	0.758542	0.14505	0.0674782
0	C	0.636671	0.232387	0.00835639
0	O	0.643785	0.233906	0.104763
0	C	0.6627	0.184011	0.00626259
0	O	0.632445	0.207384	0.0731579
0	H	0.629482	0.176002	0.0936903
0	C	0.632923	0.222052	0.0608672
0	C	0.629816	0.232568	0.0273905
0	C	0.720879	0.215954	0.0888807
0	C	0.64566	0.215574	0.000315431
0	F	0.665739	0.139976	0.0370257
0	C	0.735906	0.212319	0.0742348
0	O	0.723327	0.176399	0.026806
0	C	0.73287	0.196623	0.0604129
0	C	0.649766	0.200125	0.0136313
0	O	0.769311	0.135985	0.0638672
0	O	0.776315	0.140396	0.10395
0	Fe	0.727875	0.158028	0.00255989
0	O	0.669809	0.17354	0.0194074
0	C	0.684569	0.213216	0.0961577
0	H	0.742762	0.19437	0.0486645
0	O	0.72899	0.131568	0.0189089
0	O	0.698643	0.160962	0.0415634
0	O	0.63323	0.239518	0.066844
0	H	0.687541	0.182111	0.0708002
0	O	0.684345	0.2245	0.111066
0	C	0.643922	0.201748	0.0332339
0	F	0.645686	0.137747	0.0990696
0	C	0.7027	0.205809	0.0868801
0	H	0.647367	0.189972	0.0440168
0	C	0.71497	0.186709	0.0588781
0	C	0.712269	0.173856	0.0417141
0	O	0.757623	0.159995	0.00860315
0	Fe	0.684074	0.147574	0.0181396
0	Fe	0.780219	0.24098	0.0433331
0	O	0.755012	0.240551	0.0827783
0	O	0.764982	0.240996	0.0173846
0	H	0.781516	0.143684	0.0655857
0	O	0.698143	0.12119	0.0194971
0	C	0.710119	0.123338	0.112002
0	Fe	0.633943	0.120038	0.114335
0	O	0.453825	0.356522	0.0822763
0	H	0.507156	0.303782	0.114966
0	H	0.567049	0.306323	0.000941336
0	Fe	0.593955	0.367489	0.115165
0	O	0.493588	0.305961	0.118677
0	O	0.614835	0.262538	0.118163
0	H	0.579741	0.351667	0.0523927
0	C	0.480841	0.248295	0.0965392
0	C	0.564417	0.348114	0.0521245
0	O	0.468622	0.332166	0.0312809
0	O	0.461531	0.317896	0.0697018
0	O	0.609308	0.294672	0.0159284
0	O	0.604468	0.268234	0.0786504
0	O	0.486521	0.286487	0.0849231
0	O	0.47127	0.279998	0.0575047
0	C	0.478431	0.254082	0.0770587
0	C	0.4791	0.275089	0.0729007
0	Fe	0.477155	0.312543	0.0934256
0	O	0.501937	0.32607	0.0821144
0	Fe	0.47058	0.307035	0.0455229
0	F	0.479999	0.295498	0.0234999
0	O	0.499194	0.31472	0.0515111
0	C	0.508039	0.324309	0.0645046
0	C	0.534976	0.348814	0.0712108
0	C	0.538231	0.326043	0.0434308
0	C	0.526992	0.333296	0.0594059
0	H	0.530539	0.314226	0.03536
0	C	0.466272	0.354869	0.0964493
0	H	0.612635	0.279818	0.077704
0	H	0.603857	0.261844	0.0651119
0	O	0.469822	0.338629	0.104368
0	H	0.484429	0.258981	0.107915
0	C	0.553791	0.355781	0.0672028
0	H	0.527373	0.354828	0.0833744
0	O	0.556693	0.316908	0.00784523
0	C	0.557097	0.332843	0.039744
0	C	0.567041	0.326187	0.0220314
0	H	0.598407	0.286487	0.0106544
0	O	0.584644	0.331393	0.0196856
0	O	0.579538	0.361139	0.0891595
0	H	0.618354	0.347143	0.0931883
0	O	0.617861	0.351526	0.106509
0	H	0.614407	0.290716	0.0294669
0	H	0.501812	0.35766	0.108958
0	C	0.452904	0.366264	0.00601184
0	C	0.564277	0.368274	0.0810235
0	C	0.678079	0.29989	0.0422477
0	H	0.726017	0.341668	0.109264
0	C	0.670247	0.3034	0.0230508
0	O	0.780559	0.301908	0.04597
0	O	0.784771	0.274403	0.0123282
0	H	0.62098	0.327709	0.998413
0	H	0.667524	0.339103	0.995262
0	H	0.70703	0.304784	0.0329646
0	C	0.750942	0.250482	0.0110607
0	C	0.664359	0.271494	0.0870544
0	C	0.674393	0.285726	0.0747629
0	O	0.769857	0.300481	0.0758015
0	C	0.698431	0.300763	0.0453234
0	H	0.629919	0.358823	0.108596
0	C	0.779579	0.308631	0.0620129
0	O	0.743651	0.265026	0.0199472
0	H	0.701538	0.280549	0.0898576
0	C	0.707409	0.293223	0.0616846
0	Fe	0.763529	0.27016	0.0786823
0	Fe	0.633845	0.294496	0.996829
0	O	0.645658	0.272099	0.0889151
0	Fe	0.692347	0.358955	0.111969
0	Fe	0.623882	0.249867	0.0928537
0	H	0.708402	0.326559	0.107156
0	H	0.62312	0.245678	0.0331017
0	H	0.769635	0.343819	0.0449265
0	H	0.747118	0.282051	0.110336
0	O	0.767562	0.265087	0.0512177
0	O	0.674204	0.260444	0.0981013
0	C	0.665818	0.292455	0.0573254
0	Fe	0.762428	0.283867	0.0319968
0	H	0.755386	0.261022	0.113227
0	O	0.638262	0.266729	0.00707734
0	O	0.759679	0.274211	0.109215
0	O	0.739099	0.294522	0.0478264
0	H	0.742255	0.30315	0.00699542
0	O	0.755935	0.305224	0.0116327
0	C	0.694744	0.28725	0.0767898
0	H	0.650409	0.292852	0.0560018
0	O	0.68208	0.303709	0.00867189
0	O	0.734805	0.274678	0.073446
0	C	0.728084	0.286776	0.0615085
0	F	0.688234	0.348888	0.0877085
0	H	0.755636	0.318125	0.0190659
0	C	0.637761	0.251056	0.99772
0	O	0.652054	0.30335	0.0199664
0	O	0.714128	0.337692	0.115493
0	C	0.784706	0.341734	0.0501108
0	O	0.488381	0.473192	0.167966
0	C	0.498781	0.463881	0.155807
0	O	0.585392	0.385429	0.162775
0	C	0.602598	0.382499	0.157222
0	O	0.538795	0.485624	0.209262
0	C	0.55136	0.480653	0.196517
0	C	0.525658	0.469367	0.176487
0	C	0.544843	0.465416	0.182974
0	C	0.556484	0.450345	0.173666
0	C	0.518836	0.459579	0.1608
0	H	0.57028	0.446665	0.179995
0	H	0.516489	0.479937	0.184207
0	F	0.466309	0.485506	0.198306
0	H	0.476388	0.426601	0.21132
0	Fe	0.459231	0.475719	0.173707
0	C	0.465769	0.414816	0.209187
0	C	0.54851	0.440946	0.156593
0	O	0.492275	0.456936	0.140205
0	C	0.530461	0.446502	0.150052
0	C	0.555548	0.422919	0.147051
0	O	0.551024	0.405819	0.153787
0	C	0.525161	0.384945	0.12709
0	H	0.524518	0.440615	0.136652
0	C	0.469461	0.396293	0.218645
0	O	0.564089	0.424847	0.130453
0	O	0.571754	0.382164	0.124282
0	C	0.486069	0.393257	0.232581
0	Fe	0.561563	0.377354	0.150022
0	O	0.460676	0.448722	0.185422
0	O	0.607611	0.374304	0.140903
0	C	0.615485	0.385633	0.192727
0	H	0.499221	0.413973	0.134824
0	O	0.564151	0.492685	0.190106
0	Fe	0.469881	0.468741	0.125886
0	O	0.499688	0.406911	0.236233
0	H	0.601529	0.380008	0.197283
0	C	0.491933	0.401649	0.127614
0	O	0.489267	0.37572	0.238479
0	O	0.45294	0.465376	0.148106
0	O	0.534891	0.371922	0.137362
0	O	0.548381	0.372053	0.177457
0	C	0.618383	0.387397	0.172441
0	C	0.502754	0.384596	0.12443
0	C	0.457338	0.380551	0.215247
0	C	0.462645	0.424471	0.124367
0	C	0.472938	0.405239	0.119892
0	C	0.631263	0.385593	0.206055
0	C	0.650476	0.387491	0.198351
0	O	0.677708	0.399688	0.155013
0	C	0.756675	0.402081	0.176068
0	O	0.774207	0.441124	0.169984
0	C	0.775908	0.406957	0.1832
0	O	0.772836	0.442284	0.130192
0	Fe	0.702597	0.396028	0.140719
0	C	0.728207	0.378637	0.170459
0	H	0.722311	0.426587	0.147409
0	H	0.749434	0.473583	0.165582
0	H	0.639997	0.391918	0.150326
0	H	0.700726	0.429369	0.15314
0	Fe	0.778924	0.46473	0.149878
0	C	0.637514	0.39079	0.165509
0	H	0.742199	0.457464	0.152902
0	O	0.749453	0.469714	0.151801
0	C	0.653524	0.391123	0.178716
0	C	0.673337	0.389795	0.170463
0	C	0.748713	0.383123	0.177401
0	O	0.716913	0.392628	0.166323
0	H	0.74722	0.412466	0.169809
0	O	0.70868	0.425093	0.142357
0	H	0.66319	0.386488	0.208144
0	O	0.684772	0.376687	0.177568
0	O	0.78195	0.487669	0.129944
0	C	0.628638	0.375963	0.225303
0	O	0.727519	0.392523	0.125194
0	O	0.623381	0.385758	0.240931
0	O	0.782613	0.488344	0.167911
0	H	0.759078	0.408541	0.124797
0	C	0.78431	0.42739	0.178609
0	C	0.778871	0.370443	0.19201
0	H	0.636546	0.406463	0.119939
0	H	0.456031	0.526352	0.221203
0	F	0.508992	0.496424	0.232836
0	H	0.606634	0.517905	0.200075
0	C	0.579705	0.613128	0.123645
0	O	0.457636	0.503031	0.16219
0	H	0.461211	0.550318	0.148136
0	C	0.513177	0.603637	0.221856
0	O	0.51885	0.605671	0.174901
0	Fe	0.542634	0.604421	0.190785
0	O	0.53953	0.574106	0.194866
0	O	0.528247	0.57075	0.152994
0	Fe	0.518579	0.598751	0.146839
0	O	0.48085	0.593102	0.177819
0	O	0.489476	0.590142	0.147909
0	C	0.482926	0.582248	0.163049
0	O	0.581845	0.553741	0.143551
0	H	0.579408	0.562019	0.154771
0	H	0.575075	0.560485	0.133193
0	O	0.542705	0.531265	0.18504
0	O	0.519091	0.523212	0.206659
0	C	0.524634	0.530136	0.190549
0	Fe	0.53266	0.508128	0.227272
0	O	0.59595	0.512639	0.208416
0	Fe	0.569067	0.52159	0.197209
0	O	0.558449	0.519107	0.22297
0	O	0.590497	0.546429	0.230879
0	O	0.574828	0.55068	0.202984
0	C	0.588334	0.555755	0.214902
0	H	0.590752	0.574969	0.18032
0	C	0.475614	0.546282	0.154528
0	C	0.500514	0.554595	0.178883
0	C	0.482648	0.52668	0.154845
0	C	0.509212	0.535986	0.176638
0	C	0.49993	0.522419	0.16526
0	C	0.48497	0.560439	0.16623
0	H	0.505984	0.564598	0.189849
0	H	0.504758	0.507706	0.165119
0	H	0.531792	0.571568	0.206585
0	O	0.609015	0.528839	0.129101
0	O	0.528563	0.612464	0.216909
0	C	0.470418	0.508261	0.149495
0	H	0.525094	0.560658	0.142146
0	O	0.581823	0.52354	0.170055
0	Fe	0.612319	0.556211	0.139926
0	H	0.542953	0.571645	0.153085
0	H	0.569766	0.522731	0.162153
0	C	0.602054	0.578874	0.191066
0	O	0.567721	0.602899	0.206357
0	C	0.602946	0.570238	0.209555
0	O	0.610125	0.583913	0.151144
0	O	0.54549	0.608217	0.142691
0	O	0.477256	0.496988	0.13601
0	H	0.588522	0.511307	0.167972
0	C	0.561133	0.605055	0.152366
0	O	0.49925	0.602794	0.210411
0	O	0.561359	0.59977	0.169732
0	C	0.579655	0.611605	0.143346
0	O	0.615704	0.546767	0.167916
0	C	0.512687	0.595568	0.241365
0	H	0.540553	0.583289	0.239564
0	C	0.618058	0.590234	0.184181
0	H	0.56435	0.595649	0.218839
0	O	0.457345	0.538914	0.228019
0	C	0.619219	0.575217	0.221648
0	H	0.571396	0.615562	0.212036
0	Fe	0.496644	0.618271	0.185149
0	H	0.678287	0.610344	0.125373
0	C	0.62224	0.590564	0.163184
0	H	0.620428	0.568567	0.236204
0	H	0.643635	0.513847	0.223054
0	H	0.628535	0.552835	0.170683
0	O	0.651297	0.523318	0.21345
0	O	0.677418	0.513498	0.231719
0	O	0.776077	0.574333	0.220779
0	O	0.732057	0.602726	0.165423
0	C	0.737424	0.612993	0.180181
0	O	0.675793	0.576548	0.152708
0	C	0.633232	0.595505	0.196306
0	O	0.767322	0.563919	0.134179
0	H	0.708437	0.532181	0.225417
0	O	0.643303	0.520305	0.158536
0	H	0.76968	0.523399	0.177157
0	O	0.733712	0.576414	0.22599
0	C	0.682024	0.561166	0.160266
0	O	0.64208	0.558291	0.136963
0	C	0.675383	0.549665	0.193657
0	F	0.730028	0.564993	0.146968
0	H	0.716629	0.571834	0.17791
0	C	0.634076	0.588097	0.215407
0	O	0.664845	0.604162	0.219583
0	O	0.739991	0.594941	0.124375
0	H	0.650485	0.519212	0.170769
0	C	0.702751	0.541048	0.214914
0	C	0.777767	0.56472	0.178385
0	F	0.671681	0.510677	0.13332
0	C	0.652898	0.589468	0.22618
0	O	0.664702	0.611904	0.129222
0	F	0.753703	0.514156	0.235074
0	C	0.707673	0.563716	0.187911
0	Fe	0.657333	0.533439	0.135152
0	O	0.639196	0.594291	0.156668
0	H	0.677155	0.604362	0.228607
0	H	0.645486	0.603661	0.190134
0	H	0.660084	0.547459	0.191117
0	Fe	0.750263	0.582801	0.149922
0	Fe	0.653309	0.584008	0.132811
0	O	0.677268	0.544202	0.153943
0	C	0.732827	0.560248	0.216153
0	C	0.683029	0.53876	0.209637
0	C	0.688117	0.560451	0.181502
0	H	0.640472	0.50696	0.154232
0	C	0.671111	0.52419	0.218813
0	C	0.71473	0.553912	0.204799
0	O	0.760071	0.565656	0.17253
0	O	0.770927	0.602483	0.15237
0	O	0.747106	0.548708	0.218258
0	O	0.753047	0.608319	0.188604
0	H	0.770828	0.526629	0.123127
0	O	0.657194	0.578139	0.240071
0	Fe	0.758458	0.58828	0.240674
0	Fe	0.781296	0.608946	0.177023
0	H	0.771747	0.580097	0.208098
0	O	0.755076	0.613016	0.223611
0	C	0.782963	0.526737	0.184569
0	C	0.778021	0.568125	0.119496
0	H	0.66587	0.617183	0.143657
0	Fe	0.78405	0.613004	0.129425
0	H	0.741164	0.617554	0.223743
0	H	0.697162	0.618008	0.176008
0	O	0.785325	0.541103	0.235799
0	H	0.510471	0.399397	0.24682
0	H	0.461465	0.374981	0.359889
0	O	0.615632	0.376592	0.301238
0	O	0.539417	0.424389	0.366463
0	C	0.53574	0.477069	0.366727
0	O	0.545022	0.491998	0.246909
0	O	0.516411	0.403507	0.2906
0	O	0.546887	0.398666	0.302213
0	C	0.55675	0.386609	0.262483
0	C	0.538501	0.384388	0.271495
0	C	0.533574	0.39584	0.289095
0	O	0.542836	0.385572	0.353662
0	C	0.559641	0.390346	0.348627
0	O	0.563583	0.407306	0.341864
0	Fe	0.499269	0.408312	0.31345
0	O	0.532248	0.439218	0.302124
0	O	0.499359	0.437828	0.30817
0	C	0.514856	0.44613	0.301015
0	Fe	0.545964	0.422549	0.321857
0	O	0.571046	0.433468	0.311014
0	Fe	0.520003	0.403613	0.358621
0	O	0.521517	0.411984	0.331703
0	O	0.544374	0.44504	0.342027
0	C	0.54049	0.441754	0.35981
0	H	0.566318	0.398556	0.266228
0	H	0.567616	0.439391	0.298643
0	H	0.57486	0.444926	0.319346
0	C	0.530299	0.473308	0.282224
0	C	0.514258	0.465217	0.29204
0	C	0.497544	0.476177	0.296467
0	H	0.542581	0.464482	0.277492
0	H	0.589601	0.388869	0.323963
0	H	0.501522	0.435492	0.356157
0	H	0.544986	0.481545	0.35552
0	O	0.478877	0.412223	0.334492
0	O	0.501905	0.379849	0.351544
0	O	0.476816	0.405019	0.294132
0	H	0.47566	0.417112	0.286278
0	H	0.485087	0.469551	0.303927
0	H	0.470839	0.422847	0.329447
0	H	0.481679	0.394739	0.284773
0	O	0.501377	0.379531	0.318348
0	O	0.497925	0.423321	0.363286
0	C	0.589182	0.376465	0.33295
0	C	0.57578	0.375668	0.348053
0	C	0.529269	0.492023	0.2763
0	O	0.615052	0.40951	0.273185
0	C	0.619224	0.494486	0.360999
0	H	0.610028	0.411905	0.286356
0	C	0.501693	0.370726	0.335052
0	O	0.592178	0.37562	0.266978
0	C	0.562928	0.371287	0.250443
0	C	0.524864	0.37084	0.263883
0	C	0.644025	0.435556	0.366836
0	H	0.625998	0.417516	0.270645
0	O	0.778046	0.372778	0.308379
0	C	0.640939	0.415626	0.363165
0	Fe	0.620649	0.380005	0.270172
0	O	0.780065	0.389472	0.361614
0	C	0.661536	0.377556	0.286057
0	Fe	0.690178	0.4698	0.348793
0	O	0.68984	0.443845	0.331563
0	C	0.724805	0.376823	0.320694
0	O	0.728294	0.379994	0.338597
0	C	0.691405	0.418591	0.307089
0	O	0.633549	0.481319	0.323186
0	C	0.706109	0.407448	0.315862
0	Fe	0.656837	0.466766	0.312484
0	H	0.644165	0.408816	0.348238
0	C	0.686905	0.43918	0.313629
0	H	0.665238	0.417257	0.291089
0	C	0.654494	0.448478	0.353892
0	O	0.652475	0.446488	0.335352
0	O	0.665318	0.461665	0.360689
0	C	0.709646	0.388164	0.3101
0	F	0.640847	0.452112	0.297347
0	O	0.649626	0.386515	0.274793
0	O	0.675083	0.481238	0.328325
0	O	0.678294	0.450999	0.302093
0	C	0.677801	0.409375	0.295616
0	C	0.678411	0.388539	0.293627
0	O	0.715319	0.476539	0.335975
0	O	0.660247	0.487105	0.289009
0	C	0.695578	0.37878	0.299217
0	H	0.715863	0.415291	0.325767
0	H	0.632772	0.486177	0.364274
0	H	0.752998	0.486476	0.352453
0	H	0.778112	0.428394	0.362482
0	O	0.641265	0.375073	0.359927
0	C	0.719348	0.494205	0.332434
0	C	0.755145	0.493618	0.338488
0	H	0.710581	0.442935	0.364563
0	O	0.524614	0.531633	0.245628
0	C	0.526446	0.582193	0.24612
0	H	0.482391	0.604879	0.24565
0	O	0.551497	0.550559	0.248722
0	H	0.4559	0.588013	0.337552
0	C	0.564938	0.609912	0.366337
0	C	0.599124	0.616119	0.358587
0	C	0.496263	0.49513	0.289197
0	O	0.462943	0.498219	0.303133
0	H	0.588909	0.496743	0.257423
0	H	0.506553	0.615887	0.34735
0	O	0.58974	0.505111	0.245441
0	Fe	0.571043	0.529085	0.247234
0	C	0.533163	0.547583	0.248506
0	H	0.602715	0.511657	0.246607
0	C	0.550141	0.595466	0.365507
0	C	0.494367	0.594822	0.250648
0	C	0.458023	0.534055	0.343911
0	C	0.574169	0.609497	0.27609
0	C	0.544444	0.499278	0.263763
0	C	0.583536	0.603241	0.358913
0	H	0.585991	0.588957	0.353255
0	C	0.5206	0.564667	0.254507
0	H	0.526326	0.60087	0.285383
0	H	0.512582	0.518996	0.276157
0	C	0.512395	0.504183	0.279967
0	O	0.553182	0.515309	0.266857
0	H	0.496298	0.548121	0.266385
0	O	0.520196	0.515514	0.352215
0	O	0.49032	0.563086	0.343907
0	O	0.502344	0.541547	0.323189
0	C	0.488358	0.549344	0.331896
0	Fe	0.514474	0.579983	0.347546
0	O	0.528509	0.556631	0.352689
0	Fe	0.530961	0.535722	0.333837
0	O	0.533888	0.513852	0.312289
0	O	0.558107	0.527167	0.341074
0	C	0.570613	0.532009	0.35317
0	O	0.543572	0.555393	0.314631
0	O	0.500431	0.605677	0.339728
0	O	0.521163	0.578558	0.317347
0	C	0.537099	0.571869	0.309984
0	H	0.548621	0.51214	0.311706
0	H	0.529993	0.500734	0.317266
0	C	0.466484	0.574527	0.261507
0	O	0.607264	0.583713	0.306821
0	C	0.60302	0.594691	0.292789
0	O	0.58539	0.539721	0.270966
0	H	0.597069	0.546607	0.265903
0	H	0.576984	0.548311	0.277732
0	C	0.549577	0.583812	0.296255
0	C	0.569753	0.581612	0.297012
0	H	0.576675	0.569197	0.304405
0	C	0.60045	0.517182	0.338652
0	C	0.587927	0.520808	0.354598
0	H	0.5992	0.524145	0.324255
0	C	0.488362	0.577526	0.258889
0	C	0.501312	0.561824	0.261117
0	C	0.581895	0.59506	0.288038
0	O	0.538241	0.595018	0.351162
0	C	0.468243	0.5416	0.328168
0	O	0.475327	0.522199	0.282641
0	H	0.464822	0.555941	0.299825
0	C	0.47794	0.506003	0.291328
0	C	0.541286	0.599336	0.286001
0	O	0.461537	0.55662	0.263528
0	H	0.464203	0.530613	0.35768
0	C	0.458166	0.547018	0.311194
0	O	0.566808	0.544756	0.365582
0	C	0.617091	0.503978	0.342327
0	O	0.615366	0.605035	0.28373
0	C	0.553555	0.612038	0.275716
0	H	0.487151	0.604105	0.344787
0	F	0.619457	0.556472	0.33174
0	C	0.616992	0.610615	0.347815
0	O	0.619207	0.592663	0.343917
0	O	0.453987	0.58915	0.260112
0	C	0.524845	0.511887	0.369241
0	H	0.581982	0.618878	0.266267
0	C	0.672329	0.501549	0.287642
0	C	0.760834	0.510381	0.301186
0	H	0.724548	0.616047	0.36735
0	O	0.653584	0.568277	0.336732
0	C	0.673524	0.517399	0.273513
0	C	0.692413	0.523268	0.267162
0	C	0.669494	0.543894	0.367435
0	O	0.783481	0.600367	0.254683
0	C	0.742212	0.505698	0.308584
0	C	0.67389	0.563935	0.364887
0	O	0.747922	0.539645	0.290529
0	O	0.665154	0.508168	0.355481
0	O	0.644143	0.601584	0.313187
0	Fe	0.757278	0.538928	0.245931
0	O	0.648056	0.618349	0.258005
0	C	0.777446	0.506227	0.31249
0	C	0.717808	0.550071	0.26556
0	C	0.682605	0.556436	0.26947
0	O	0.680921	0.607388	0.32369
0	C	0.760209	0.526258	0.287424
0	C	0.663539	0.550696	0.274907
0	C	0.739313	0.499337	0.327066
0	H	0.691984	0.53972	0.326301
0	H	0.673581	0.543144	0.313292
0	O	0.683917	0.5041	0.30058
0	H	0.685928	0.572305	0.269208
0	O	0.678037	0.537393	0.32587
0	Fe	0.752388	0.567358	0.285094
0	C	0.77374	0.498073	0.331806
0	H	0.708496	0.609017	0.276068
0	H	0.729726	0.510527	0.300719
0	O	0.642433	0.56017	0.299934
0	O	0.781896	0.56552	0.295599
0	H	0.730331	0.577144	0.312378
0	O	0.729403	0.539337	0.255309
0	C	0.74674	0.607422	0.275537
0	O	0.691171	0.495104	0.367241
0	O	0.723661	0.565908	0.274696
0	O	0.652258	0.581994	0.27843
0	C	0.685808	0.612285	0.307027
0	C	0.632035	0.498721	0.327933
0	O	0.67484	0.614591	0.292496
0	O	0.760401	0.565226	0.257659
0	O	0.706132	0.507064	0.333245
0	C	0.650962	0.565063	0.284744
0	O	0.767978	0.52507	0.27081
0	O	0.75873	0.596819	0.283583
0	H	0.741698	0.559352	0.321382
0	O	0.645312	0.510867	0.323232
0	Fe	0.631459	0.577715	0.321737
0	O	0.740719	0.603638	0.258722
0	C	0.679222	0.509761	0.366869
0	Fe	0.644894	0.609636	0.286954
0	H	0.644656	0.527658	0.281459
0	O	0.743199	0.57172	0.315058
0	Fe	0.675376	0.507633	0.328179
0	H	0.704929	0.512915	0.267058
0	O	0.658645	0.594768	0.353933
0	C	0.697152	0.543197	0.266135
0	H	0.656728	0.539701	0.360635
0	C	0.660683	0.576477	0.351624
0	C	0.658234	0.531097	0.2752
0	H	0.782842	0.571208	0.309503
0	Fe	0.656095	0.617061	0.33312
0	C	0.716027	0.61724	0.287883
0	C	0.706325	0.617363	0.305631
0	Fe	0.606246	0.44354	0.454614
0	O	0.60377	0.466064	0.437322
0	O	0.608636	0.418833	0.472412
0	O	0.59048	0.456084	0.476463
0	O	0.566218	0.465602	0.457118
0	C	0.573479	0.46305	0.473995
0	C	0.548518	0.485027	0.487551
0	C	0.562564	0.470018	0.491043
0	Fe	0.578611	0.473729	0.430051
0	O	0.551905	0.482609	0.422307
0	O	0.587936	0.483935	0.402902
0	O	0.580884	0.431211	0.445324
0	O	0.574921	0.446317	0.417852
0	C	0.603999	0.48606	0.393928
0	C	0.576449	0.430344	0.428202
0	Fe	0.466511	0.420269	0.407344
0	O	0.482237	0.39912	0.391328
0	O	0.477119	0.404731	0.430756
0	C	0.475104	0.407918	0.448611
0	O	0.468869	0.424523	0.453962
0	O	0.471164	0.466259	0.399708
0	O	0.488591	0.439479	0.408536
0	C	0.487852	0.456954	0.401372
0	C	0.585875	0.395865	0.426785
0	C	0.572728	0.410088	0.419327
0	C	0.553036	0.40502	0.414043
0	H	0.599267	0.400596	0.433858
0	H	0.542252	0.416581	0.413157
0	C	0.473783	0.392054	0.462313
0	C	0.522327	0.452908	0.388325
0	C	0.507969	0.485218	0.388504
0	C	0.506832	0.465141	0.392555
0	H	0.521457	0.438175	0.394406
0	C	0.491479	0.464783	0.45413
0	C	0.50719	0.45404	0.462582
0	C	0.505337	0.446798	0.482191
0	C	0.473425	0.465208	0.463332
0	H	0.49421	0.47126	0.439524
0	O	0.536224	0.43715	0.457088
0	C	0.523878	0.449307	0.450227
0	O	0.523654	0.454114	0.431359
0	H	0.537636	0.45083	0.425599
0	C	0.47162	0.457391	0.482294
0	C	0.472512	0.397273	0.481567
0	H	0.480835	0.410101	0.486923
0	C	0.54705	0.386117	0.418247
0	H	0.480364	0.385856	0.39735
0	F	0.51893	0.398125	0.3842
0	O	0.513785	0.39456	0.422045
0	C	0.580461	0.376465	0.427514
0	H	0.475253	0.398757	0.37846
0	C	0.526491	0.380947	0.421235
0	C	0.464265	0.374345	0.455839
0	H	0.547606	0.49349	0.473915
0	O	0.457429	0.432496	0.381259
0	H	0.457505	0.457414	0.489572
0	O	0.457233	0.474321	0.435196
0	O	0.619262	0.480225	0.400837
0	H	0.51786	0.440356	0.489685
0	C	0.455966	0.468125	0.451909
0	H	0.616231	0.424218	0.48335
0	H	0.544827	0.484816	0.434664
0	C	0.561855	0.372402	0.421846
0	H	0.595741	0.41622	0.476891
0	H	0.497708	0.426981	0.377302
0	C	0.487899	0.449114	0.491663
0	C	0.533343	0.457861	0.37208
0	C	0.523258	0.491001	0.375975
0	H	0.463944	0.370168	0.440618
0	O	0.713781	0.380406	0.466489
0	O	0.620216	0.429767	0.432136
0	H	0.628764	0.400015	0.40898
0	Fe	0.626555	0.480109	0.429397
0	C	0.729717	0.389414	0.468274
0	C	0.767821	0.392665	0.374396
0	C	0.773524	0.409055	0.387734
0	O	0.719873	0.485707	0.482289
0	C	0.763864	0.388995	0.483743
0	C	0.63198	0.409795	0.397535
0	C	0.642458	0.441575	0.386558
0	H	0.738955	0.47293	0.458318
0	H	0.667316	0.392854	0.484581
0	C	0.63367	0.403158	0.37798
0	C	0.640857	0.476075	0.489608
0	O	0.733588	0.405147	0.456491
0	O	0.634314	0.481916	0.457376
0	C	0.63237	0.437796	0.42109
0	H	0.717127	0.438775	0.472716
0	O	0.640073	0.453612	0.425871
0	C	0.636056	0.429539	0.401566
0	H	0.765423	0.402948	0.475814
0	O	0.632586	0.451659	0.467222
0	H	0.64504	0.456663	0.389578
0	H	0.736023	0.444307	0.484489
0	O	0.722357	0.446639	0.482861
0	C	0.635938	0.469165	0.470133
0	O	0.751825	0.38263	0.375346
0	H	0.719378	0.410926	0.451178
0	C	0.778513	0.379112	0.494326
0	C	0.67287	0.379082	0.490193
0	C	0.631702	0.381923	0.373895
0	C	0.78126	0.42597	0.377515
0	H	0.77965	0.391521	0.413268
0	C	0.744448	0.3815	0.482508
0	H	0.688749	0.461799	0.487382
0	H	0.677329	0.44407	0.493315
0	O	0.743662	0.487857	0.459329
0	C	0.653426	0.493231	0.490747
0	O	0.705328	0.455668	0.37005
0	H	0.712568	0.378937	0.377239
0	C	0.78247	0.405728	0.406874
0	O	0.619578	0.370848	0.384585
0	H	0.693935	0.451334	0.378329
0	H	0.55197	0.494896	0.415136
0	H	0.496338	0.494914	0.393044
0	O	0.463305	0.581463	0.381615
0	O	0.489086	0.527055	0.488474
0	O	0.513712	0.589705	0.473143
0	O	0.496682	0.563292	0.465338
0	C	0.502388	0.580685	0.461547
0	Fe	0.512572	0.542439	0.476531
0	F	0.508971	0.529754	0.453975
0	O	0.529799	0.520973	0.485193
0	O	0.537328	0.553814	0.463528
0	O	0.581743	0.501231	0.440912
0	O	0.612684	0.506106	0.432844
0	C	0.608568	0.545029	0.449124
0	C	0.574934	0.539158	0.451215
0	C	0.606812	0.561536	0.460773
0	C	0.571436	0.557263	0.460596
0	C	0.58772	0.567819	0.465782
0	C	0.593069	0.533347	0.444588
0	C	0.552629	0.562542	0.469654
0	C	0.595998	0.512825	0.43745
0	H	0.562594	0.52903	0.44936
0	H	0.586882	0.579148	0.474958
0	O	0.516875	0.56163	0.39305
0	C	0.507155	0.57746	0.391281
0	C	0.49861	0.578998	0.426481
0	C	0.497111	0.587395	0.408356
0	C	0.496486	0.589552	0.443416
0	H	0.504632	0.564533	0.427085
0	O	0.552155	0.57446	0.483918
0	F	0.554851	0.549861	0.401888
0	O	0.53332	0.524356	0.380084
0	Fe	0.541352	0.553472	0.377852
0	C	0.493062	0.607626	0.406537
0	C	0.492739	0.60923	0.442137
0	O	0.551035	0.581641	0.378304
0	H	0.580749	0.515626	0.383359
0	O	0.507826	0.587093	0.375603
0	H	0.490687	0.613556	0.392718
0	C	0.590405	0.511272	0.372246
0	C	0.604138	0.49661	0.375247
0	H	0.49241	0.617043	0.455998
0	C	0.491097	0.619207	0.423529
0	H	0.466519	0.567727	0.383796
0	H	0.472854	0.586708	0.372062
0	O	0.783399	0.503606	0.399009
0	H	0.772203	0.498391	0.390549
0	H	0.783531	0.496055	0.411835
0	O	0.724104	0.614284	0.412975
0	H	0.781004	0.504131	0.475107
0	C	0.693811	0.615434	0.446237
0	H	0.622557	0.541527	0.443172
0	F	0.648385	0.494903	0.423019
0	C	0.62467	0.56907	0.470562
0	O	0.624513	0.585985	0.478155
0	Fe	0.747312	0.605766	0.393636
0	C	0.668921	0.606101	0.471966
0	O	0.768391	0.568375	0.379191
0	Fe	0.762368	0.562142	0.408671
0	O	0.729824	0.582684	0.382548
0	H	0.752576	0.52488	0.453754
0	C	0.731634	0.518194	0.476929
0	F	0.768189	0.536642	0.403476
0	H	0.695374	0.599865	0.442397
0	C	0.70478	0.558265	0.382991
0	O	0.771418	0.599319	0.376887
0	O	0.639241	0.558089	0.469393
0	C	0.778678	0.582655	0.37461
0	O	0.756409	0.555686	0.436545
0	O	0.677916	0.549646	0.453674
0	H	0.711743	0.526877	0.387897
0	O	0.747049	0.581485	0.453159
0	C	0.732354	0.558314	0.482868
0	C	0.723899	0.566328	0.389997
0	H	0.690933	0.555387	0.451915
0	C	0.743003	0.530484	0.465319
0	C	0.743475	0.550801	0.468536
0	Fe	0.764093	0.600785	0.438168
0	C	0.731377	0.496269	0.47316
0	C	0.700663	0.537587	0.383072
0	C	0.748992	0.563461	0.451689
0	O	0.669007	0.588324	0.465971
0	Fe	0.667235	0.561941	0.479886
0	O	0.734031	0.556287	0.40232
0	H	0.661943	0.496267	0.477502
0	O	0.757314	0.589204	0.413851
0	H	0.670453	0.552964	0.442159
0	H	0.730373	0.5738	0.48312
0	O	0.660025	0.611298	0.487597
0	O	0.693089	0.566829	0.488979
0	O	0.664674	0.53341	0.491003
0	O	0.772222	0.613245	0.464694
0	C	0.683675	0.530348	0.37365
0	C	0.71942	0.526607	0.491454
0	C	0.71908	0.546906	0.493584
0	H	0.785834	0.618652	0.463815
0	C	0.690585	0.570699	0.374736
0	O	0.783557	0.618708	0.424344
0	H	0.693877	0.586057	0.37408
0	C	0.558842	0.370732	0.610957
0	O	0.460129	0.475522	0.58624
0	H	0.569577	0.470948	0.618212
0	O	0.455875	0.453615	0.552989
0	C	0.461851	0.386322	0.494909
0	Fe	0.457995	0.425036	0.541921
0	C	0.458608	0.397602	0.575278
0	C	0.459792	0.38884	0.595411
0	O	0.582452	0.374368	0.496585
0	H	0.47658	0.409641	0.609247
0	O	0.602039	0.465212	0.5378
0	Fe	0.565561	0.483504	0.583394
0	O	0.564085	0.452214	0.550124
0	O	0.560568	0.483347	0.553998
0	C	0.552897	0.470919	0.52518
0	C	0.564668	0.462835	0.510142
0	C	0.558861	0.468767	0.544228
0	O	0.556021	0.455603	0.589198
0	Fe	0.591172	0.44923	0.559517
0	O	0.591345	0.472548	0.577089
0	O	0.580999	0.434886	0.582475
0	C	0.563947	0.439077	0.589591
0	F	0.591347	0.425925	0.543766
0	H	0.574403	0.451045	0.513018
0	O	0.504179	0.399532	0.575108
0	O	0.502757	0.431862	0.580978
0	C	0.507271	0.414097	0.586036
0	Fe	0.502484	0.439652	0.552492
0	O	0.501524	0.444701	0.523067
0	C	0.486253	0.442718	0.511987
0	O	0.48255	0.387629	0.521132
0	O	0.527537	0.42191	0.552479
0	Fe	0.492097	0.393916	0.547943
0	O	0.484897	0.420173	0.547636
0	O	0.486007	0.464903	0.55109
0	O	0.515563	0.400059	0.53343
0	C	0.529996	0.407016	0.542821
0	F	0.520535	0.458972	0.557003
0	C	0.546367	0.393979	0.545765
0	C	0.561344	0.393731	0.531366
0	H	0.562834	0.404891	0.520988
0	C	0.540346	0.485882	0.521859
0	O	0.468748	0.437212	0.51736
0	C	0.574426	0.377589	0.530908
0	C	0.473796	0.395385	0.608892
0	C	0.521235	0.411033	0.601105
0	H	0.519538	0.379807	0.60202
0	C	0.553578	0.423675	0.600592
0	C	0.561653	0.405597	0.603456
0	C	0.533929	0.426155	0.604583
0	C	0.549957	0.39009	0.60759
0	H	0.527891	0.440915	0.605737
0	H	0.576835	0.403668	0.602967
0	C	0.528916	0.392078	0.605323
0	O	0.571589	0.483951	0.612812
0	C	0.465531	0.390836	0.515089
0	O	0.466657	0.387451	0.56231
0	C	0.467625	0.466729	0.547596
0	C	0.543242	0.377235	0.55726
0	C	0.461578	0.482342	0.532905
0	H	0.530548	0.376944	0.566234
0	Fe	0.615862	0.482529	0.584578
0	O	0.608809	0.487644	0.613495
0	H	0.533431	0.493837	0.534329
0	C	0.538515	0.492983	0.503477
0	C	0.587803	0.374055	0.514693
0	H	0.5325	0.488107	0.602058
0	H	0.527318	0.494402	0.580995
0	O	0.619032	0.444255	0.565021
0	C	0.617824	0.47543	0.539446
0	H	0.617983	0.459162	0.504029
0	H	0.561491	0.492235	0.617713
0	O	0.452855	0.398868	0.525895
0	H	0.454487	0.465006	0.617758
0	O	0.62406	0.45285	0.594097
0	H	0.70866	0.374158	0.559302
0	H	0.727911	0.420859	0.607163
0	Fe	0.710922	0.439002	0.508918
0	O	0.717394	0.385424	0.563504
0	C	0.665156	0.406878	0.557955
0	O	0.738582	0.428957	0.517981
0	O	0.692702	0.47413	0.533611
0	C	0.74504	0.424561	0.534509
0	O	0.625801	0.479936	0.555991
0	C	0.62375	0.439094	0.581938
0	O	0.734349	0.419706	0.548358
0	H	0.626648	0.410868	0.555806
0	C	0.628271	0.470845	0.50552
0	C	0.633287	0.407914	0.569111
0	C	0.629977	0.479987	0.522855
0	C	0.630158	0.419323	0.585291
0	O	0.711863	0.395659	0.523026
0	C	0.65694	0.386854	0.58594
0	C	0.710403	0.445683	0.599908
0	Fe	0.706959	0.409461	0.548603
0	C	0.70052	0.396203	0.508313
0	C	0.650294	0.396006	0.568393
0	C	0.688827	0.379056	0.50383
0	O	0.679125	0.398542	0.549376
0	C	0.722916	0.435064	0.611564
0	C	0.703823	0.439581	0.581032
0	O	0.696968	0.452389	0.569744
0	C	0.638573	0.413085	0.602466
0	H	0.769544	0.450638	0.520059
0	C	0.651364	0.396419	0.602882
0	O	0.697798	0.433008	0.533824
0	O	0.661258	0.44618	0.522665
0	C	0.710121	0.477612	0.528709
0	O	0.720004	0.464803	0.518822
0	C	0.765687	0.427968	0.540074
0	O	0.699022	0.412409	0.498638
0	H	0.765909	0.407171	0.563223
0	F	0.661175	0.466434	0.556895
0	C	0.774016	0.418336	0.556267
0	O	0.685249	0.454301	0.498905
0	C	0.705288	0.465008	0.60672
0	O	0.664822	0.425199	0.559488
0	H	0.662928	0.432459	0.51853
0	Fe	0.679178	0.449602	0.546228
0	C	0.775895	0.443135	0.53117
0	H	0.696415	0.473925	0.596658
0	O	0.704754	0.421658	0.57583
0	H	0.668509	0.376241	0.586628
0	H	0.730509	0.382499	0.55805
0	H	0.648644	0.481076	0.599422
0	H	0.63673	0.421228	0.616044
0	O	0.642662	0.491745	0.592995
0	H	0.744115	0.494361	0.516038
0	H	0.650762	0.490865	0.581219
0	O	0.587832	0.611497	0.617774
0	H	0.544617	0.615949	0.509723
0	O	0.537595	0.495174	0.591099
0	H	0.474165	0.617117	0.511966
0	C	0.474291	0.497136	0.526552
0	H	0.487911	0.499299	0.534479
0	O	0.538655	0.613073	0.496399
0	C	0.466698	0.607721	0.52286
0	Fe	0.527824	0.58359	0.498437
0	C	0.52962	0.512548	0.50139
0	O	0.545848	0.579614	0.523261
0	O	0.538801	0.55003	0.534415
0	O	0.574805	0.512363	0.579304
0	O	0.606972	0.51109	0.575751
0	C	0.606817	0.549674	0.55885
0	C	0.571725	0.545342	0.556065
0	C	0.605206	0.56575	0.545231
0	C	0.569431	0.561397	0.54453
0	C	0.586122	0.571297	0.538684
0	C	0.589821	0.540174	0.56426
0	C	0.550397	0.564147	0.533353
0	C	0.590948	0.519859	0.573761
0	O	0.517877	0.557147	0.499829
0	Fe	0.511377	0.545884	0.525416
0	O	0.506189	0.53274	0.551225
0	O	0.483555	0.539748	0.517326
0	C	0.481248	0.52564	0.505185
0	O	0.521526	0.519568	0.516133
0	O	0.50278	0.592348	0.511801
0	O	0.502841	0.572589	0.537533
0	C	0.494552	0.585741	0.526991
0	H	0.559906	0.536585	0.560276
0	H	0.583995	0.583684	0.52852
0	H	0.516208	0.521981	0.552358
0	H	0.509147	0.543318	0.561058
0	C	0.47616	0.593068	0.533275
0	C	0.4697	0.509071	0.510422
0	C	0.466873	0.584311	0.549147
0	H	0.474174	0.574264	0.558642
0	C	0.45354	0.504747	0.498825
0	H	0.6128	0.501565	0.616207
0	F	0.623141	0.616029	0.501673
0	C	0.653933	0.614906	0.572452
0	C	0.654539	0.614912	0.592537
0	H	0.726377	0.575395	0.53078
0	C	0.667462	0.599283	0.540604
0	O	0.620485	0.579167	0.518561
0	H	0.621322	0.543829	0.563813
0	H	0.733393	0.617817	0.586293
0	C	0.702146	0.556889	0.50176
0	O	0.728419	0.584834	0.564913
0	C	0.650502	0.505479	0.506348
0	O	0.674152	0.549606	0.554555
0	C	0.767141	0.524351	0.52799
0	C	0.71251	0.504776	0.552844
0	O	0.749889	0.579045	0.599334
0	H	0.750908	0.535087	0.560746
0	Fe	0.640305	0.594959	0.503162
0	C	0.667832	0.603989	0.561966
0	H	0.783981	0.541319	0.598191
0	O	0.697212	0.50269	0.617543
0	C	0.623078	0.572073	0.535103
0	C	0.667364	0.602691	0.603352
0	O	0.68074	0.560185	0.607716
0	O	0.652277	0.605363	0.530926
0	H	0.666528	0.601093	0.618775
0	C	0.737058	0.502484	0.527518
0	O	0.661404	0.524013	0.603448
0	H	0.758561	0.584754	0.609675
0	H	0.651836	0.532702	0.609495
0	H	0.662491	0.530052	0.589748
0	O	0.678517	0.586108	0.534235
0	C	0.718061	0.53149	0.57934
0	H	0.710763	0.517285	0.499795
0	H	0.759136	0.570469	0.591246
0	Fe	0.665503	0.561267	0.528098
0	O	0.701225	0.529244	0.586844
0	H	0.641344	0.505335	0.538055
0	Fe	0.689071	0.532343	0.614268
0	C	0.748053	0.517352	0.535753
0	O	0.726452	0.591368	0.532732
0	O	0.693041	0.551378	0.517354
0	C	0.727428	0.597594	0.551825
0	O	0.777032	0.535597	0.538066
0	O	0.656984	0.572145	0.50408
0	Fe	0.731393	0.559176	0.612731
0	O	0.653533	0.53559	0.520938
0	C	0.719689	0.495118	0.536245
0	C	0.690017	0.574347	0.601127
0	H	0.662613	0.551626	0.563156
0	O	0.708228	0.574659	0.60226
0	O	0.731223	0.541943	0.587569
0	C	0.741317	0.524985	0.552852
0	O	0.640349	0.569509	0.541917
0	H	0.692633	0.584358	0.564834
0	C	0.681825	0.59308	0.572726
0	C	0.641098	0.497771	0.523686
0	H	0.698003	0.500131	0.558039
0	O	0.772583	0.517934	0.511437
0	H	0.673982	0.535312	0.551305
0	C	0.679718	0.590717	0.592438
0	C	0.657466	0.525709	0.506051
0	C	0.723284	0.520491	0.561087
0	C	0.726923	0.618796	0.55583
0	O	0.568973	0.470254	0.666968
0	O	0.597731	0.477112	0.654877
0	C	0.565045	0.436508	0.646138
0	C	0.600578	0.43685	0.646735
0	C	0.583017	0.447309	0.648194
0	C	0.600507	0.416551	0.646101
0	C	0.583064	0.466077	0.656593
0	O	0.531689	0.415438	0.658989
0	C	0.546434	0.405719	0.654419
0	C	0.581927	0.40619	0.647382
0	C	0.56413	0.415812	0.648588
0	O	0.546977	0.386956	0.65615
0	O	0.515616	0.424481	0.696406
0	O	0.510282	0.404208	0.721372
0	C	0.526867	0.432948	0.72761
0	C	0.533609	0.451353	0.720574
0	C	0.516832	0.419936	0.714509
0	O	0.552856	0.481173	0.701864
0	O	0.574635	0.48391	0.726477
0	C	0.559487	0.476775	0.718915
0	C	0.548969	0.460655	0.729318
0	Fe	0.504518	0.409431	0.67271
0	O	0.515288	0.385223	0.681113
0	C	0.496295	0.38504	0.637986
0	O	0.493664	0.399755	0.647839
0	F	0.493621	0.43353	0.663711
0	H	0.52853	0.456248	0.706756
0	H	0.552039	0.445681	0.64846
0	H	0.613534	0.444429	0.650511
0	H	0.582196	0.389692	0.647568
0	H	0.536278	0.479915	0.657623
0	O	0.476297	0.479734	0.733896
0	Fe	0.511411	0.376288	0.709569
0	O	0.481727	0.375896	0.705228
0	O	0.47691	0.401649	0.68569
0	C	0.470474	0.38716	0.695546
0	O	0.540986	0.376201	0.713198
0	O	0.509216	0.372049	0.642743
0	O	0.614382	0.473754	0.693662
0	C	0.491696	0.489709	0.735411
0	C	0.616861	0.475776	0.712387
0	C	0.618764	0.406007	0.651661
0	O	0.613225	0.492134	0.720822
0	H	0.475752	0.492928	0.701504
0	O	0.536391	0.493349	0.662108
0	C	0.483444	0.381399	0.621491
0	O	0.621214	0.387965	0.646329
0	C	0.712223	0.473106	0.624416
0	C	0.625	0.458616	0.723362
0	C	0.652465	0.414055	0.706727
0	Fe	0.660054	0.410783	0.662353
0	O	0.690485	0.39664	0.695193
0	C	0.751317	0.433336	0.633156
0	O	0.650603	0.396101	0.709747
0	O	0.658086	0.421323	0.690381
0	H	0.656072	0.439144	0.640339
0	C	0.695628	0.408615	0.682521
0	H	0.736957	0.383687	0.736323
0	O	0.776126	0.398632	0.656771
0	C	0.732575	0.443482	0.627217
0	O	0.661078	0.43925	0.654153
0	C	0.714901	0.449999	0.714257
0	C	0.709761	0.466164	0.702172
0	C	0.780489	0.405014	0.673945
0	H	0.697177	0.442078	0.661047
0	C	0.722042	0.452109	0.734463
0	C	0.771874	0.407686	0.710158
0	O	0.759327	0.436861	0.649918
0	C	0.690845	0.478843	0.674614
0	H	0.650916	0.44597	0.661757
0	O	0.631043	0.415133	0.6611
0	O	0.657009	0.383747	0.66938
0	C	0.726351	0.461858	0.634789
0	C	0.701573	0.444122	0.675904
0	C	0.705564	0.427461	0.687773
0	H	0.634835	0.445214	0.696032
0	H	0.711046	0.481066	0.708624
0	C	0.64358	0.428062	0.720116
0	H	0.733388	0.468262	0.648134
0	C	0.770935	0.396966	0.69261
0	H	0.714226	0.418491	0.716824
0	C	0.701921	0.463039	0.683993
0	C	0.761657	0.402193	0.727539
0	C	0.747795	0.387216	0.725191
0	C	0.713341	0.430957	0.706525
0	C	0.634734	0.444518	0.712064
0	O	0.681774	0.476125	0.658419
0	O	0.689655	0.407208	0.665039
0	O	0.66314	0.405032	0.633397
0	C	0.759071	0.381203	0.69169
0	Fe	0.666765	0.376125	0.69556
0	C	0.659263	0.390937	0.622211
0	C	0.641359	0.424152	0.739863
0	Fe	0.783849	0.403889	0.626795
0	O	0.656068	0.373403	0.628487
0	O	0.727826	0.469297	0.739602
0	H	0.781413	0.420084	0.711505
0	F	0.634128	0.49303	0.662999
0	O	0.77956	0.461089	0.677763
0	C	0.621904	0.454146	0.743705
0	O	0.767571	0.481303	0.744439
0	H	0.645945	0.410258	0.744356
0	H	0.757187	0.373519	0.677652
0	H	0.767158	0.467369	0.673078
0	C	0.706919	0.493397	0.62962
0	O	0.759458	0.421587	0.621611
0	C	0.747952	0.375333	0.707986
0	H	0.775582	0.45227	0.687928
0	F	0.769213	0.382331	0.619861
0	C	0.455307	0.600904	0.634285
0	O	0.456661	0.546468	0.734283
0	O	0.471291	0.499398	0.66507
0	H	0.537967	0.499843	0.648664
0	Fe	0.610234	0.496552	0.674993
0	C	0.456463	0.597277	0.741181
0	H	0.608144	0.558085	0.635404
0	C	0.490945	0.497473	0.701847
0	C	0.501855	0.496261	0.718855
0	H	0.46483	0.572429	0.69966
0	C	0.487379	0.508799	0.666795
0	H	0.484363	0.518874	0.640097
0	Fe	0.56279	0.497359	0.6768
0	O	0.586447	0.500701	0.689944
0	Fe	0.58905	0.508971	0.716608
0	O	0.555832	0.523177	0.686536
0	O	0.561412	0.521981	0.717121
0	O	0.573145	0.513842	0.652246
0	O	0.603816	0.522093	0.657613
0	C	0.549074	0.521814	0.703389
0	C	0.586609	0.526585	0.652276
0	C	0.547109	0.58576	0.667861
0	O	0.545143	0.576267	0.683635
0	O	0.536153	0.568298	0.721877
0	C	0.545418	0.576328	0.736667
0	Fe	0.521217	0.579831	0.698751
0	F	0.514507	0.554896	0.690648
0	O	0.505468	0.589611	0.672727
0	O	0.498637	0.595215	0.740281
0	O	0.496368	0.57964	0.712683
0	C	0.488785	0.586984	0.727156
0	C	0.520789	0.505604	0.720166
0	C	0.528618	0.515379	0.704475
0	C	0.498758	0.507159	0.68581
0	C	0.517265	0.517048	0.686931
0	H	0.522521	0.524055	0.673589
0	H	0.52954	0.504837	0.73362
0	C	0.562787	0.555279	0.654769
0	C	0.566291	0.585814	0.638208
0	C	0.580614	0.547595	0.647208
0	C	0.557179	0.5753	0.651989
0	H	0.554444	0.546798	0.664505
0	O	0.495262	0.518225	0.651146
0	H	0.584971	0.579409	0.729502
0	O	0.541739	0.592515	0.744019
0	C	0.592815	0.561613	0.637768
0	O	0.526536	0.606216	0.707374
0	O	0.603829	0.53414	0.705671
0	C	0.48317	0.610243	0.653794
0	C	0.471005	0.595895	0.647661
0	H	0.471788	0.581396	0.653815
0	O	0.541773	0.603549	0.666521
0	C	0.499203	0.606856	0.667622
0	C	0.585283	0.580608	0.632972
0	C	0.466714	0.587086	0.727289
0	H	0.562376	0.601117	0.635906
0	C	0.581926	0.569953	0.741467
0	Fe	0.522573	0.613812	0.735065
0	O	0.489131	0.537631	0.743193
0	O	0.614598	0.600903	0.631479
0	O	0.603066	0.614969	0.722555
0	C	0.456349	0.579361	0.711028
0	H	0.592268	0.611927	0.731562
0	C	0.59797	0.597894	0.625755
0	H	0.600504	0.605486	0.711644
0	H	0.492932	0.528248	0.732525
0	H	0.612056	0.605049	0.673342
0	O	0.610504	0.618799	0.669746
0	H	0.460911	0.539202	0.722077
0	H	0.562858	0.61397	0.698007
0	C	0.453529	0.619389	0.625497
0	O	0.756845	0.546353	0.623157
0	O	0.621698	0.579304	0.735752
0	C	0.620348	0.530417	0.69673
0	H	0.622779	0.571094	0.703421
0	O	0.625194	0.513196	0.693695
0	C	0.728375	0.614545	0.694651
0	H	0.658031	0.606916	0.647029
0	O	0.690607	0.496762	0.683735
0	O	0.714169	0.540013	0.626454
0	C	0.760491	0.529672	0.628405
0	C	0.751992	0.538372	0.730018
0	C	0.667362	0.567461	0.682727
0	C	0.680823	0.541985	0.658372
0	C	0.737922	0.581176	0.687546
0	H	0.712999	0.548314	0.729783
0	Fe	0.722925	0.528085	0.651483
0	H	0.649642	0.524083	0.671705
0	C	0.665482	0.550112	0.672274
0	C	0.736046	0.597045	0.700895
0	O	0.747318	0.517977	0.636519
0	O	0.698014	0.539616	0.664847
0	H	0.713022	0.600541	0.649279
0	O	0.712057	0.500877	0.646016
0	O	0.759066	0.582423	0.725618
0	Fe	0.629252	0.608584	0.735975
0	C	0.650873	0.576537	0.691494
0	O	0.670937	0.593495	0.712932
0	C	0.634811	0.545719	0.688988
0	Fe	0.676817	0.610976	0.735683
0	C	0.733009	0.569679	0.653052
0	O	0.737763	0.55201	0.657423
0	C	0.653912	0.592336	0.705222
0	H	0.747696	0.569124	0.691743
0	O	0.772161	0.537288	0.731691
0	O	0.74336	0.533566	0.714276
0	O	0.729759	0.575585	0.635952
0	C	0.729698	0.582989	0.66899
0	C	0.649921	0.538365	0.676884
0	C	0.719048	0.599865	0.664237
0	H	0.683433	0.506186	0.674377
0	O	0.640409	0.604428	0.70836
0	O	0.675256	0.535968	0.641516
0	C	0.634397	0.565779	0.693232
0	O	0.64823	0.605329	0.657077
0	H	0.67932	0.576999	0.680345
0	C	0.744828	0.596176	0.720618
0	F	0.731538	0.51615	0.6743
0	H	0.778009	0.531371	0.71866
0	H	0.763727	0.586517	0.740021
0	H	0.778145	0.499477	0.644288
0	H	0.653226	0.612166	0.668791
0	O	0.739648	0.608755	0.733482
0	O	0.785708	0.613388	0.701951
0	C	0.719998	0.551705	0.743863
0	C	0.72123	0.616153	0.675398
0	C	0.785597	0.504374	0.631094
0	C	0.779121	0.521715	0.622273
0	C	0.453157	0.461298	0.83371
0	O	0.545371	0.37165	0.786102
0	H	0.540695	0.375631	0.772966
0	H	0.455962	0.469744	0.863157
0	H	0.517213	0.373413	0.745411
0	C	0.555605	0.453663	0.747439
0	C	0.533958	0.426333	0.745117
0	H	0.529008	0.412376	0.749881
0	C	0.5963	0.374102	0.757688
0	H	0.471179	0.383136	0.793264
0	O	0.474473	0.476172	0.776285
0	H	0.567591	0.460401	0.755534
0	O	0.594364	0.402275	0.794136
0	Fe	0.570694	0.387721	0.790586
0	O	0.555218	0.40324	0.811219
0	C	0.561582	0.411474	0.826283
0	O	0.577274	0.421254	0.825873
0	Fe	0.59311	0.4292	0.803305
0	F	0.591178	0.45414	0.811287
0	O	0.569201	0.435344	0.78544
0	C	0.559887	0.425766	0.771237
0	C	0.548532	0.436013	0.754784
0	O	0.560913	0.407039	0.770192
0	O	0.608671	0.438512	0.779623
0	C	0.476309	0.487147	0.845193
0	C	0.475335	0.477341	0.810383
0	C	0.483177	0.488775	0.825741
0	O	0.47275	0.382941	0.751891
0	C	0.477308	0.486089	0.791123
0	H	0.485172	0.384085	0.759028
0	H	0.539133	0.380591	0.837795
0	C	0.551288	0.408255	0.845004
0	C	0.540615	0.391641	0.848891
0	H	0.603905	0.401723	0.860546
0	H	0.565202	0.433859	0.858226
0	H	0.46472	0.39446	0.755361
0	C	0.461017	0.472559	0.848174
0	C	0.557256	0.420144	0.861102
0	O	0.611566	0.383826	0.762281
0	H	0.615297	0.463954	0.753251
0	C	0.619096	0.401409	0.863167
0	Fe	0.619006	0.390532	0.789482
0	O	0.617734	0.425575	0.821809
0	O	0.582515	0.369768	0.769824
0	Fe	0.454266	0.48177	0.754197
0	C	0.460317	0.463689	0.814282
0	O	0.458211	0.379517	0.790656
0	H	0.611073	0.493423	0.840467
0	C	0.535042	0.386968	0.867943
0	H	0.644029	0.376377	0.770027
0	H	0.691816	0.373393	0.869192
0	H	0.760373	0.375817	0.868977
0	H	0.638175	0.491478	0.860924
0	O	0.745744	0.445368	0.866096
0	H	0.663595	0.380994	0.826356
0	O	0.674368	0.373571	0.819435
0	C	0.762111	0.414722	0.746299
0	C	0.622599	0.430162	0.770996
0	H	0.781863	0.423138	0.832913
0	O	0.720582	0.437887	0.746135
0	C	0.62541	0.409567	0.828159
0	C	0.7587	0.478256	0.856852
0	C	0.760885	0.471697	0.83732
0	O	0.758822	0.487231	0.788918
0	H	0.661956	0.415913	0.84169
0	O	0.710318	0.454262	0.786417
0	O	0.707647	0.45249	0.852339
0	O	0.775442	0.460555	0.799482
0	C	0.693755	0.481511	0.804057
0	C	0.772995	0.400577	0.853828
0	Fe	0.777352	0.442695	0.774895
0	C	0.77079	0.411886	0.836526
0	F	0.710439	0.415211	0.775039
0	O	0.750695	0.453042	0.770203
0	C	0.743826	0.382401	0.843653
0	H	0.731453	0.391569	0.815535
0	C	0.707077	0.473311	0.78804
0	O	0.739614	0.427343	0.800495
0	H	0.698411	0.454063	0.81934
0	O	0.768735	0.418864	0.791743
0	C	0.686583	0.475312	0.837975
0	O	0.627048	0.394239	0.817559
0	C	0.632548	0.408221	0.848591
0	C	0.651404	0.41166	0.852878
0	C	0.767002	0.484321	0.822565
0	H	0.758082	0.456263	0.834317
0	C	0.692234	0.462917	0.85386
0	O	0.775917	0.426869	0.749364
0	O	0.747901	0.413009	0.758783
0	O	0.644989	0.376722	0.784011
0	C	0.766574	0.476936	0.802686
0	F	0.722713	0.418375	0.847251
0	Fe	0.743732	0.478576	0.762859
0	C	0.743534	0.393365	0.826488
0	C	0.758408	0.385906	0.857139
0	O	0.718968	0.48402	0.779635
0	C	0.757269	0.40738	0.822001
0	Fe	0.730122	0.433865	0.772507
0	C	0.691507	0.469187	0.819546
0	O	0.631594	0.416295	0.779171
0	C	0.629422	0.436258	0.75152
0	C	0.755669	0.418796	0.80405
0	C	0.680805	0.494191	0.842193
0	H	0.685321	0.38243	0.818403
0	O	0.679186	0.371186	0.86323
0	H	0.655848	0.38609	0.786808
0	O	0.682222	0.463196	0.86896
0	O	0.690335	0.418466	0.868596
0	Fe	0.717915	0.431379	0.868986
0	H	0.524734	0.61229	0.770487
0	O	0.592946	0.519084	0.744674
0	C	0.562203	0.565655	0.746673
0	H	0.605646	0.512426	0.746644
0	C	0.460227	0.564843	0.815748
0	H	0.501002	0.543148	0.748324
0	H	0.465048	0.605057	0.751357
0	H	0.596292	0.511558	0.838435
0	H	0.518712	0.613743	0.863785
0	H	0.492748	0.500618	0.822432
0	O	0.497449	0.496323	0.75146
0	H	0.581405	0.606102	0.785388
0	H	0.532948	0.587543	0.797154
0	H	0.582612	0.512454	0.753162
0	O	0.550503	0.570182	0.817638
0	H	0.583288	0.509005	0.801551
0	C	0.579387	0.587526	0.809536
0	O	0.585329	0.524017	0.799133
0	F	0.517309	0.550437	0.844413
0	O	0.476824	0.552513	0.849268
0	Fe	0.483125	0.519681	0.76601
0	O	0.51027	0.527055	0.778759
0	H	0.507696	0.534692	0.790475
0	H	0.515939	0.513904	0.781513
0	C	0.558022	0.55429	0.761839
0	C	0.597435	0.564056	0.753795
0	C	0.573829	0.547123	0.774031
0	C	0.593078	0.552812	0.769728
0	H	0.543478	0.552375	0.766924
0	H	0.604231	0.550057	0.780674
0	C	0.590352	0.576302	0.82371
0	H	0.582265	0.56552	0.832792
0	O	0.553033	0.523364	0.790087
0	C	0.570102	0.530997	0.788551
0	C	0.557894	0.583584	0.807989
0	C	0.611033	0.578936	0.825455
0	C	0.617434	0.571032	0.751783
0	O	0.478488	0.504206	0.789942
0	H	0.473784	0.557027	0.815251
0	O	0.610033	0.506912	0.836434
0	O	0.495367	0.515657	0.855998
0	C	0.589268	0.599494	0.796644
0	C	0.481749	0.502758	0.859547
0	Fe	0.500088	0.545419	0.865589
0	O	0.470609	0.543698	0.779909
0	C	0.609179	0.602167	0.798616
0	C	0.46414	0.565489	0.85195
0	O	0.547336	0.593427	0.795177
0	O	0.614555	0.610921	0.763799
0	O	0.616729	0.549384	0.840696
0	C	0.619065	0.593822	0.814963
0	O	0.458395	0.510109	0.755188
0	C	0.452965	0.547516	0.783542
0	Fe	0.626826	0.52519	0.855264
0	H	0.772123	0.494761	0.745407
0	Fe	0.786097	0.569031	0.827691
0	C	0.699697	0.615768	0.809378
0	O	0.769297	0.561516	0.802184
0	C	0.665474	0.524342	0.832938
0	O	0.769167	0.613629	0.817278
0	Fe	0.73813	0.567842	0.843345
0	H	0.635178	0.596699	0.815183
0	H	0.735161	0.514638	0.767045
0	H	0.771446	0.513632	0.814848
0	O	0.641196	0.570925	0.841587
0	H	0.681982	0.577054	0.83413
0	C	0.623699	0.565834	0.836997
0	O	0.738153	0.61582	0.844481
0	O	0.672754	0.539517	0.840247
0	C	0.750082	0.559075	0.799898
0	Fe	0.661618	0.560107	0.86069
0	C	0.621358	0.609271	0.781661
0	H	0.725278	0.50685	0.747636
0	C	0.724335	0.609013	0.834778
0	O	0.647856	0.519787	0.836084
0	C	0.740253	0.558809	0.780091
0	C	0.769701	0.503871	0.826789
0	C	0.766506	0.511732	0.846397
0	Fe	0.655143	0.587052	0.770941
0	O	0.629085	0.571525	0.766233
0	C	0.678038	0.507339	0.826375
0	H	0.712846	0.569814	0.789314
0	H	0.67817	0.498192	0.856716
0	H	0.697031	0.600037	0.809205
0	O	0.779542	0.541902	0.83791
0	O	0.73737	0.507179	0.754688
0	O	0.762702	0.581459	0.839893
0	C	0.784561	0.608909	0.808365
0	C	0.68547	0.501344	0.806798
0	Fe	0.766391	0.60878	0.846518
0	H	0.765813	0.549799	0.765613
0	H	0.66958	0.570913	0.800637
0	O	0.722516	0.590854	0.832374
0	C	0.710192	0.560343	0.759431
0	C	0.766291	0.533606	0.84676
0	H	0.649076	0.561452	0.797827
0	H	0.685396	0.511346	0.795601
0	O	0.693524	0.587737	0.746793
0	O	0.681688	0.580186	0.848717
0	C	0.740441	0.547937	0.746043
0	O	0.656086	0.57337	0.79802
0	O	0.73836	0.558071	0.814411
0	O	0.639273	0.608111	0.784118
0	F	0.714271	0.555617	0.848309
0	C	0.691599	0.571472	0.755296
0	C	0.720475	0.562976	0.777086
0	C	0.759749	0.498505	0.861017
0	O	0.674782	0.565437	0.761244
0	O	0.678075	0.60242	0.780044
0	O	0.750983	0.54221	0.852962
0	H	0.673745	0.59207	0.850294
0	C	0.750418	0.552748	0.763817
0	O	0.653853	0.601444	0.747306
0	C	0.684686	0.619477	0.775972
0	H	0.485443	0.478666	0.9029
0	H	0.495971	0.489527	0.920202
0	O	0.566834	0.451244	0.96546
0	O	0.592554	0.409525	0.968675
0	H	0.591109	0.423716	0.97043
0	Fe	0.594976	0.403417	0.938885
0	O	0.599841	0.39494	0.910236
0	C	0.610655	0.405151	0.898431
0	O	0.611127	0.422809	0.90079
0	O	0.551908	0.424378	0.914479
0	O	0.574602	0.439822	0.895718
0	C	0.559403	0.427668	0.897483
0	O	0.567049	0.391791	0.938463
0	Fe	0.558657	0.437922	0.939895
0	O	0.585329	0.429309	0.932862
0	Fe	0.599264	0.445025	0.914593
0	O	0.615293	0.461872	0.894038
0	O	0.589124	0.47065	0.927499
0	O	0.530275	0.446901	0.9472
0	O	0.556184	0.413741	0.957796
0	O	0.558592	0.463273	0.924058
0	C	0.553501	0.39806	0.949461
0	C	0.571747	0.475967	0.923746
0	H	0.531719	0.461151	0.947086
0	H	0.5234	0.444049	0.935055
0	O	0.488674	0.431298	0.95429
0	C	0.483792	0.416905	0.945096
0	Fe	0.478733	0.432055	0.981748
0	O	0.484208	0.461731	0.98198
0	C	0.479753	0.47262	0.966843
0	C	0.539296	0.400848	0.883212
0	C	0.550966	0.417168	0.880467
0	H	0.535804	0.396954	0.897749
0	C	0.517522	0.403707	0.950619
0	C	0.5329	0.39045	0.948038
0	C	0.49888	0.400718	0.941609
0	H	0.51901	0.415895	0.959269
0	H	0.576611	0.461269	0.960957
0	H	0.605677	0.407157	0.973209
0	O	0.483679	0.489212	0.912095
0	C	0.495789	0.3828	0.931984
0	O	0.472297	0.402129	0.981072
0	H	0.48162	0.379237	0.925752
0	F	0.6037	0.37912	0.945236
0	O	0.472011	0.464628	0.950904
0	O	0.46608	0.418235	0.939471
0	H	0.504802	0.489804	0.992073
0	H	0.461532	0.452427	0.911516
0	F	0.504437	0.425918	0.989769
0	H	0.536952	0.490089	0.908002
0	C	0.528838	0.373278	0.941106
0	C	0.48544	0.494307	0.967247
0	H	0.617455	0.473164	0.902343
0	C	0.455363	0.394885	0.986684
0	H	0.628574	0.455451	0.893068
0	C	0.625091	0.399252	0.883301
0	O	0.623371	0.413373	0.938922
0	O	0.623467	0.445143	0.932762
0	H	0.700607	0.439278	0.972331
0	C	0.698466	0.439255	0.933678
0	O	0.660195	0.468791	0.902773
0	O	0.747472	0.428348	0.900862
0	H	0.759132	0.471672	0.929615
0	Fe	0.686631	0.457178	0.896487
0	O	0.673758	0.430549	0.894215
0	O	0.71626	0.435168	0.930051
0	O	0.720706	0.477971	0.921437
0	C	0.631807	0.42963	0.938925
0	O	0.699642	0.483503	0.897406
0	O	0.712115	0.44677	0.891233
0	H	0.668561	0.413374	0.927682
0	H	0.755403	0.417303	0.935115
0	O	0.767497	0.385858	0.980159
0	C	0.668728	0.422918	0.940042
0	C	0.768567	0.396032	0.964659
0	C	0.669746	0.444097	0.973715
0	Fe	0.732095	0.452001	0.910489
0	C	0.67512	0.419278	0.879306
0	C	0.711406	0.48985	0.909947
0	O	0.690254	0.453753	0.925419
0	O	0.753856	0.457801	0.931109
0	C	0.644536	0.403935	0.887225
0	C	0.652808	0.441937	0.964141
0	O	0.744872	0.468548	0.889072
0	C	0.761871	0.388683	0.945157
0	O	0.774877	0.412547	0.965545
0	C	0.740022	0.410728	0.899694
0	C	0.687385	0.42824	0.947862
0	H	0.746553	0.456618	0.944119
0	C	0.754693	0.401817	0.931483
0	H	0.657671	0.479706	0.893678
0	C	0.74693	0.395803	0.913337
0	C	0.687157	0.436973	0.966121
0	O	0.726961	0.408364	0.886594
0	C	0.651224	0.430496	0.94743
0	H	0.648932	0.404662	0.902067
0	H	0.661595	0.475718	0.914839
0	H	0.640163	0.44918	0.969558
0	C	0.657473	0.409401	0.872598
0	C	0.669092	0.455257	0.991015
0	O	0.675394	0.472601	0.990011
0	O	0.778505	0.44395	0.990111
0	C	0.74769	0.375816	0.909181
0	C	0.748747	0.463914	0.871304
0	H	0.740463	0.370888	0.896333
0	H	0.771609	0.478038	0.992557
0	O	0.602269	0.530801	0.872498
0	C	0.568044	0.495195	0.914338
0	Fe	0.483141	0.51575	0.898314
0	O	0.482338	0.541035	0.886761
0	O	0.491723	0.577898	0.901393
0	O	0.512827	0.510425	0.892339
0	C	0.526413	0.522176	0.889293
0	O	0.494138	0.529614	0.922329
0	O	0.470923	0.550277	0.927125
0	C	0.482917	0.53717	0.933648
0	O	0.493126	0.597274	0.968441
0	H	0.485495	0.591353	0.958552
0	H	0.506262	0.600322	0.964296
0	C	0.600392	0.53001	0.8907
0	C	0.498145	0.533984	0.967073
0	C	0.498824	0.501291	0.981792
0	C	0.483992	0.527819	0.953645
0	C	0.47696	0.508315	0.954665
0	C	0.505521	0.520596	0.98153
0	H	0.502869	0.549385	0.966175
0	C	0.563256	0.528234	0.890533
0	C	0.54976	0.499421	0.906998
0	C	0.581279	0.523401	0.898456
0	C	0.583475	0.506899	0.910012
0	C	0.54702	0.516311	0.895517
0	H	0.597913	0.504904	0.916852
0	Fe	0.467265	0.561151	0.898051
0	C	0.498433	0.5867	0.886985
0	C	0.500271	0.608461	0.888507
0	O	0.613276	0.533093	0.903268
0	O	0.524164	0.538368	0.880575
0	H	0.482181	0.606339	0.914456
0	H	0.467639	0.503246	0.94287
0	H	0.561604	0.542264	0.883139
0	O	0.472929	0.502088	0.875412
0	C	0.491565	0.616268	0.905399
0	H	0.588204	0.617461	0.988761
0	C	0.602855	0.553713	0.990383
0	H	0.593059	0.566566	0.991764
0	C	0.596669	0.533577	0.993857
0	O	0.503639	0.576673	0.871942
0	H	0.458477	0.587215	0.921806
0	H	0.454435	0.594968	0.901071
0	O	0.460527	0.572095	0.869661
0	O	0.781916	0.557489	0.958449
0	O	0.620637	0.591943	0.989259
0	O	0.643316	0.542724	0.872455
0	O	0.633563	0.499915	0.871635
0	O	0.785196	0.516902	0.960026
0	C	0.623653	0.556798	0.988638
0	C	0.776715	0.570021	0.927048
0	H	0.700771	0.562089	0.931436
0	C	0.639599	0.602844	0.903865
0	H	0.640513	0.508987	0.909217
0	Fe	0.641647	0.544231	0.900701
0	C	0.762314	0.576461	0.914336
0	H	0.654501	0.590693	0.928346
0	C	0.76426	0.572858	0.894265
0	C	0.683013	0.550603	0.896932
0	H	0.683354	0.578804	0.964239
0	Fe	0.769013	0.53721	0.975541
0	O	0.682349	0.54917	0.878279
0	O	0.658962	0.606578	0.963815
0	C	0.704326	0.523998	0.901624
0	C	0.729987	0.542363	0.953837
0	C	0.712574	0.510661	0.913631
0	C	0.706209	0.548558	0.925767
0	H	0.68572	0.569244	0.984775
0	C	0.718222	0.535896	0.937011
0	H	0.697703	0.519169	0.888289
0	C	0.753875	0.58463	0.879998
0	H	0.751676	0.587121	0.917473
0	F	0.638951	0.545454	0.926748
0	O	0.761351	0.601303	0.875145
0	O	0.668541	0.556395	0.905933
0	H	0.727794	0.507725	0.941368
0	Fe	0.741112	0.577483	0.978511
0	O	0.746962	0.534972	0.95517
0	O	0.687961	0.581508	0.977817
0	C	0.772296	0.568681	0.947879
0	O	0.756777	0.577058	0.953469
0	C	0.69929	0.542741	0.908061
0	H	0.662549	0.516465	0.913115
0	O	0.651904	0.51559	0.903773
0	C	0.720364	0.517153	0.931162
0	C	0.646467	0.603487	0.923617
0	C	0.640825	0.58474	0.892715
0	O	0.724833	0.600379	0.966088
0	O	0.630851	0.570599	0.898027
0	O	0.723937	0.557612	0.964682
0	O	0.653794	0.582731	0.879164
0	H	0.735439	0.609064	0.961915
0	H	0.721199	0.594343	0.953397
0	O	0.761222	0.59561	0.990056
0	H	0.754081	0.50322	0.875609
0	O	0.755651	0.55588	0.990555
0	C	0.778705	0.560559	0.887421
0	C	0.631297	0.577193	0.989295
0	C	0.636477	0.540958	0.988691
0	H	0.651556	0.544468	0.98801
0	O	0.738796	0.577458	0.871612
0	O	0.756387	0.515471	0.992122
0	O	0.700836	0.505921	0.990327
0	Fe	0.668495	0.599438	0.992184
0	H	0.713496	0.499034	0.990207
0	C	0.630303	0.522418	0.992974
0	H	0.781043	0.55911	0.871507
0	O	0.649553	0.577797	0.992735
0	H	0.622932	0.616718	0.882146
0	C	0.640342	0.618481	0.936228
0	C	0.644906	0.617064	0.957568
0	C	0.6277	0.616976	0.897382
0	H	0.785205	0.523219	0.947071
0	H	0.778335	0.504585	0.958573
0	C	0.460112	0.489657	0.0542444
0	O	0.607377	0.389527	0.104361
0	C	0.474911	0.371747	0.106908
0	C	0.463238	0.447361	0.019504
0	O	0.555287	0.480273	0.0115517
0	H	0.563549	0.484794	0.000335735
0	H	0.542852	0.476919	0.00655071
0	O	0.486491	0.473575	0.101833
0	H	0.488918	0.460297	0.0961759
0	Fe	0.561992	0.404166	0.108187
0	F	0.5504	0.424052	0.0926625
0	C	0.488921	0.468224	0.0387621
0	C	0.494408	0.484436	0.0506471
0	H	0.500841	0.460652	0.0302012
0	O	0.588975	0.414541	0.0961609
0	O	0.474914	0.434551	0.0114222
0	O	0.556107	0.383892	0.0861594
0	C	0.605468	0.405969	0.0970182
0	C	0.464112	0.389613	0.110365
0	C	0.469907	0.461346	0.0357405
0	C	0.61751	0.48831	0.0726375
0	H	0.498744	0.478079	0.10772
0	O	0.466633	0.439984	0.115408
0	H	0.595036	0.4819	0.0530003
0	C	0.598469	0.488953	0.0663816
0	H	0.617202	0.425412	0.0649537
0	O	0.522997	0.49193	0.033362
0	C	0.455073	0.472519	0.044045
0	C	0.493705	0.370498	0.113664
0	H	0.457633	0.374546	0.017572
0	C	0.479279	0.494145	0.0591605
0	O	0.53338	0.398371	0.11737
0	O	0.777323	0.37197	0.0207764
0	H	0.734502	0.376919	0.0020855
0	O	0.687787	0.404771	0.116471
0	F	0.620241	0.456612	0.0125529
0	O	0.716009	0.377141	0.0999805
0	C	0.762154	0.441575	0.998496
0	C	0.781998	0.438023	0.114511
0	H	0.677778	0.417245	0.0741159
0	O	0.640658	0.447003	0.0431787
0	O	0.671379	0.446096	0.0538138
0	C	0.734676	0.472607	0.0338358
0	C	0.713525	0.473381	0.0338521
0	C	0.774627	0.407532	0.05003
0	O	0.647642	0.478027	0.0650948
0	O	0.628385	0.485598	0.0405812
0	O	0.657014	0.450316	0.00397992
0	C	0.754726	0.458571	0.00873486
0	C	0.768103	0.407882	0.0700444
0	C	0.744042	0.490861	0.0329926
0	H	0.743296	0.387277	0.0673992
0	H	0.67523	0.481591	0.0922897
0	C	0.729353	0.388308	0.107286
0	H	0.674836	0.460113	0.0879718
0	C	0.772982	0.42206	0.101744
0	C	0.759992	0.4086	0.109467
0	C	0.747654	0.396795	0.0975432
0	C	0.640134	0.411202	0.105483
0	C	0.673744	0.397082	0.107262
0	C	0.663116	0.416844	0.0797373
0	O	0.704543	0.474092	0.0494834
0	C	0.631438	0.483233	0.0583337
0	O	0.637843	0.488762	0.999911
0	C	0.629344	0.421201	0.0736636
0	O	0.682733	0.471615	0.0849985
0	O	0.704941	0.473951	0.0170751
0	O	0.738345	0.386133	0.0127199
0	H	0.733969	0.443016	0.0264646
0	Fe	0.642888	0.4683	0.0216892
0	O	0.753611	0.42499	6.82461e-05
0	C	0.659374	0.409336	0.0977254
0	C	0.751242	0.396861	0.0768782
0	C	0.653832	0.439695	0.0542651
0	C	0.624733	0.415366	0.0922692
0	C	0.763144	0.47707	0.00594993
0	C	0.648362	0.424654	0.0684482
0	C	0.778375	0.420697	0.0823565
0	Fe	0.765606	0.397865	0.00795726
0	C	0.740836	0.456665	0.0224743
0	O	0.666389	0.479708	0.0304579
0	O	0.762756	0.408933	0.0361862
0	Fe	0.674618	0.475775	0.0561328
0	O	0.671011	0.378709	0.106805
0	C	0.757648	0.493776	0.0176952
0	Fe	0.682729	0.492283	0.0102191
0	H	0.638264	0.494467	0.0953666
0	H	0.740864	0.378613	0.0240218
0	C	0.521059	0.525797	0.995421
0	C	0.610739	0.519044	0.995405
0	C	0.474763	0.619476	0.0161506
0	O	0.516646	0.591689	0.117513
0	C	0.455787	0.574973	0.0411491
0	C	0.6193	0.521357	0.116649
0	H	0.606781	0.504782	0.000410876
0	C	0.455976	0.593688	0.0327274
0	H	0.54392	0.59098	0.0107463
0	H	0.569759	0.604278	0.114877
0	O	0.48225	0.615295	0.999874
0	H	0.558613	0.580496	0.99571
0	H	0.521124	0.602612	0.110108
0	C	0.513252	0.494548	0.0484954
0	O	0.563383	0.49598	0.049955
0	O	0.608199	0.56834	0.113798
0	O	0.533933	0.512975	0.99957
0	C	0.585695	0.500134	0.0766532
0	O	0.521951	0.543081	0.00162372
0	O	0.545381	0.579569	0.00103779
0	O	0.574655	0.516227	0.0143961
0	O	0.564444	0.543476	0.000170061
0	C	0.577157	0.530634	0.0028501
0	Fe	0.548203	0.505674	0.0251187
0	O	0.541998	0.531372	0.0351713
0	Fe	0.542906	0.554949	0.01833
0	O	0.522526	0.569698	0.0340023
0	C	0.508339	0.564106	0.0441855
0	O	0.509626	0.549164	0.0554307
0	O	0.517241	0.508797	0.0601759
0	Fe	0.534293	0.534249	0.0625322
0	F	0.526941	0.537644	0.0894388
0	O	0.552495	0.558997	0.0652217
0	C	0.588921	0.595425	0.0500563
0	C	0.563839	0.568928	0.0543357
0	C	0.579643	0.582162	0.0618061
0	C	0.588152	0.578121	0.0806197
0	O	0.563047	0.566952	0.0351626
0	O	0.558675	0.520096	0.071533
0	C	0.568183	0.5057	0.0655121
0	H	0.481723	0.50844	0.0669064
0	C	0.473519	0.565548	0.0465934
0	C	0.491361	0.593598	0.0343887
0	C	0.490392	0.574858	0.0426208
0	H	0.473889	0.551012	0.0512533
0	H	0.583589	0.598356	0.0358486
0	C	0.604725	0.588446	0.0866051
0	H	0.505444	0.599722	0.0295732
0	C	0.473504	0.603364	0.0298279
0	H	0.58177	0.56677	0.0912604
0	C	0.591165	0.508937	0.0942745
0	C	0.606339	0.605096	0.0552632
0	C	0.615081	0.583228	0.105199
0	H	0.582525	0.519255	0.101371
0	C	0.61364	0.602461	0.0745968
0	C	0.610669	0.508569	0.100709
0	O	0.613369	0.614471	0.0232625
0	C	0.617654	0.616403	0.0409353
0	H	0.527895	0.582728	0.115794
0	H	0.538976	0.605565	0.0776846
0	O	0.531465	0.616828	0.0715731
0	H	0.7365	0.502842	0.0414054
0	C	0.674652	0.587414	0.0364537
0	C	0.685821	0.553477	0.0416562
0	O	0.755903	0.58827	0.0209423
0	C	0.760726	0.513346	0.0100889
0	Fe	0.761153	0.558297	0.019468
0	H	0.701958	0.519306	0.995344
0	C	0.74459	0.611296	0.115179
0	H	0.724957	0.609746	0.0247161
0	C	0.748943	0.609996	0.0806131
0	C	0.623933	0.497222	0.0899443
0	O	0.680134	0.587462	0.0186525
0	O	0.650637	0.61583	0.00785343
0	H	0.627443	0.608624	0.0794644
0	O	0.670186	0.5757	0.109694
0	C	0.685407	0.516963	0.0460582
0	H	0.688512	0.528811	0.0833078
0	C	0.644188	0.506178	0.997963
0	O	0.732249	0.552565	0.0263095
0	H	0.756841	0.596425	0.0820005
0	O	0.690655	0.513739	0.0285057
0	O	0.780646	0.586049	0.11455
0	C	0.757874	0.600855	0.00699942
0	H	0.672443	0.588093	0.0763569
0	O	0.765914	0.527452	0.0205738
0	O	0.723103	0.577955	0.00318025
0	H	0.685905	0.551244	0.0270002
0	O	0.784534	0.606145	0.0569578
0	O	0.630027	0.592437	0.1122
0	O	0.638013	0.524432	0.115998
0	H	0.731256	0.550229	0.0405023
0	H	0.714718	0.567043	7.42807e-05
0	O	0.661447	0.511119	0.00270689
0	O	0.664645	0.600568	0.0434098
0	C	0.681322	0.558713	0.0823219
0	C	0.677153	0.573879	0.0699875
0	C	0.676156	0.559308	0.103204
0	O	0.673613	0.543717	0.112312
0	C	0.686808	0.537323	0.0533943
0	H	0.715097	0.589409	0.000967704
0	O	0.67796	0.504686	0.0580814
0	C	0.680764	0.571983	0.0494936
0	F	0.76654	0.558972	0.0454264
0	C	0.685933	0.540632	0.0741103
0	C	0.737346	0.616294	0.0954041
0	C	0.7841	0.531154	0.115488
0	O	0.487168	0.717465	0.154597
0	O	0.511231	0.725156	0.13494
0	C	0.496275	0.657013	0.134721
0	C	0.493621	0.675609	0.143718
0	C	0.498586	0.71305	0.141
0	C	0.498635	0.63881	0.146117
0	C	0.60681	0.634191	0.14557
0	Fe	0.491792	0.735414	0.179857
0	C	0.571621	0.732416	0.139376
0	C	0.58983	0.73115	0.148367
0	C	0.603752	0.718652	0.141307
0	O	0.511271	0.714346	0.19049
0	O	0.53536	0.733406	0.20043
0	O	0.515046	0.642076	0.194058
0	O	0.545618	0.632388	0.186327
0	O	0.604416	0.696632	0.208813
0	O	0.601883	0.665154	0.202633
0	C	0.562918	0.664284	0.204574
0	C	0.560667	0.699757	0.206387
0	C	0.542682	0.663745	0.199771
0	C	0.539978	0.69889	0.203343
0	C	0.531525	0.680171	0.200669
0	C	0.572067	0.682389	0.207974
0	C	0.528224	0.716753	0.197961
0	C	0.593818	0.681324	0.207176
0	C	0.533615	0.645341	0.19294
0	H	0.571449	0.65118	0.204793
0	H	0.568138	0.713829	0.207919
0	H	0.516125	0.680879	0.197109
0	H	0.490191	0.676807	0.159321
0	H	0.591517	0.738825	0.162607
0	C	0.497816	0.693072	0.132775
0	O	0.467376	0.721093	0.191975
0	O	0.489198	0.635708	0.161839
0	O	0.510396	0.626315	0.139384
0	F	0.474978	0.629103	0.196418
0	C	0.601068	0.709703	0.123449
0	C	0.604348	0.63847	0.125483
0	O	0.615812	0.715541	0.174016
0	H	0.471449	0.709311	0.199258
0	C	0.5554	0.742863	0.14835
0	H	0.609334	0.735557	0.209585
0	C	0.593103	0.62211	0.154426
0	C	0.618086	0.712451	0.15548
0	O	0.553972	0.744228	0.167241
0	H	0.457646	0.718891	0.181661
0	C	0.568343	0.720925	0.122108
0	H	0.592425	0.622603	0.17087
0	O	0.622844	0.641964	0.175413
0	C	0.621051	0.645462	0.157295
0	O	0.623062	0.733078	0.212831
0	F	0.626395	0.634684	0.213868
0	H	0.65128	0.679156	0.123213
0	Fe	0.631038	0.707491	0.199375
0	O	0.66945	0.702885	0.167647
0	O	0.659956	0.65033	0.198802
0	C	0.70414	0.630278	0.182501
0	O	0.662146	0.681856	0.132908
0	C	0.692747	0.646308	0.189
0	C	0.720234	0.660402	0.205099
0	C	0.645249	0.683836	0.233925
0	O	0.668856	0.660366	0.168689
0	Fe	0.768196	0.737493	0.235564
0	O	0.748307	0.716146	0.240013
0	O	0.636465	0.669958	0.227041
0	O	0.631257	0.701631	0.149058
0	C	0.701074	0.660698	0.200612
0	H	0.731245	0.718662	0.143033
0	C	0.724038	0.628838	0.187866
0	Fe	0.720666	0.720388	0.232602
0	O	0.646549	0.699677	0.224057
0	H	0.665672	0.721165	0.13605
0	C	0.72716	0.67694	0.216639
0	Fe	0.649056	0.681707	0.160603
0	O	0.654153	0.723316	0.188229
0	H	0.692712	0.673245	0.2051
0	C	0.66508	0.720603	0.17357
0	C	0.672292	0.650947	0.184406
0	O	0.743646	0.674901	0.225631
0	H	0.748137	0.64473	0.201541
0	O	0.63753	0.682841	0.18692
0	C	0.668827	0.73586	0.14116
0	C	0.66856	0.738235	0.161117
0	O	0.718079	0.69296	0.218131
0	F	0.695396	0.725595	0.224521
0	C	0.731939	0.645135	0.198375
0	Fe	0.631222	0.658331	0.200058
0	O	0.720126	0.723509	0.133699
0	O	0.628864	0.66066	0.149928
0	O	0.728477	0.730291	0.20565
0	H	0.77316	0.672124	0.192171
0	O	0.775649	0.637705	0.172953
0	H	0.669612	0.669282	0.132388
0	H	0.721125	0.731551	0.171764
0	H	0.681549	0.697335	0.240783
0	O	0.75806	0.622003	0.121614
0	H	0.761641	0.624924	0.229794
0	F	0.699546	0.690618	0.122755
0	C	0.719161	0.743613	0.132864
0	O	0.78036	0.691671	0.228234
0	O	0.783182	0.720822	0.21405
0	O	0.54313	0.750274	0.137477
0	O	0.463473	0.829413	0.181087
0	H	0.472642	0.831543	0.168198
0	O	0.513617	0.749579	0.168208
0	Fe	0.514064	0.754011	0.140565
0	O	0.51682	0.783354	0.145261
0	C	0.531796	0.789891	0.152574
0	O	0.539555	0.783079	0.167539
0	O	0.493067	0.750543	0.206456
0	O	0.514766	0.773134	0.203941
0	C	0.499694	0.766787	0.212799
0	Fe	0.534952	0.758966	0.184707
0	F	0.555622	0.767773	0.200432
0	O	0.47519	0.759606	0.169659
0	O	0.48461	0.757418	0.139075
0	C	0.476474	0.767084	0.152621
0	C	0.567962	0.846409	0.231597
0	O	0.486538	0.845155	0.23564
0	O	0.502429	0.844467	0.197034
0	C	0.560783	0.806785	0.140099
0	C	0.528501	0.821403	0.134086
0	C	0.54054	0.80784	0.144435
0	H	0.569298	0.795582	0.14651
0	C	0.497706	0.796992	0.23295
0	C	0.490364	0.77793	0.23002
0	H	0.508869	0.801681	0.223256
0	C	0.599653	0.831557	0.218225
0	C	0.585393	0.832464	0.232825
0	H	0.600354	0.842727	0.207901
0	C	0.467247	0.786215	0.146897
0	O	0.540407	0.858707	0.183883
0	H	0.497308	0.832133	0.203412
0	O	0.566836	0.858921	0.21722
0	H	0.512708	0.819326	0.135541
0	H	0.552805	0.85252	0.182503
0	Fe	0.496758	0.866639	0.215764
0	C	0.473207	0.795893	0.129293
0	C	0.612497	0.816193	0.217908
0	C	0.474152	0.772774	0.242028
0	H	0.466982	0.75912	0.239976
0	C	0.463979	0.813261	0.123191
0	O	0.46964	0.867402	0.207027
0	C	0.568792	0.816608	0.124134
0	C	0.611933	0.801534	0.232084
0	O	0.525208	0.867573	0.22373
0	H	0.588219	0.764152	0.122523
0	H	0.614227	0.77877	0.138831
0	H	0.484587	0.790291	0.12037
0	H	0.540447	0.866139	0.171269
0	C	0.496797	0.831288	0.24416
0	H	0.463155	0.864874	0.219177
0	H	0.630447	0.745409	0.209632
0	C	0.738124	0.746074	0.202024
0	H	0.623511	0.83414	0.136408
0	C	0.67478	0.865648	0.21808
0	H	0.624464	0.812656	0.141379
0	H	0.62316	0.860126	0.161615
0	H	0.622555	0.760653	0.128708
0	O	0.754251	0.846518	0.122592
0	O	0.623773	0.775208	0.128794
0	O	0.621219	0.825282	0.147018
0	C	0.723986	0.746856	0.170223
0	C	0.673513	0.751087	0.127876
0	O	0.752357	0.751079	0.212882
0	C	0.719958	0.756113	0.151072
0	Fe	0.684117	0.862094	0.173818
0	O	0.71109	0.852229	0.182843
0	C	0.67399	0.8445	0.135774
0	H	0.740163	0.852475	0.22757
0	C	0.672701	0.770497	0.135507
0	H	0.720369	0.783039	0.134765
0	O	0.70636	0.825526	0.200993
0	Fe	0.644538	0.831461	0.164749
0	C	0.748954	0.84699	0.215796
0	O	0.668	0.839049	0.180138
0	C	0.668357	0.794173	0.165867
0	C	0.739826	0.838207	0.198835
0	C	0.734314	0.756879	0.183871
0	C	0.670145	0.773966	0.156405
0	O	0.674853	0.847099	0.220391
0	H	0.74598	0.828151	0.169894
0	O	0.627209	0.819633	0.185047
0	H	0.749216	0.783305	0.191218
0	C	0.669068	0.757409	0.1686
0	C	0.629551	0.817626	0.203608
0	H	0.676073	0.782911	0.125978
0	C	0.724192	0.776086	0.148641
0	C	0.753539	0.795075	0.152318
0	Fe	0.674474	0.82306	0.201792
0	O	0.656153	0.843874	0.141489
0	O	0.688522	0.849991	0.146306
0	C	0.752485	0.830989	0.184494
0	H	0.62153	0.788676	0.231789
0	O	0.631161	0.856593	0.172787
0	C	0.736972	0.784391	0.161387
0	F	0.679438	0.807351	0.221436
0	C	0.740663	0.776153	0.180436
0	C	0.717888	0.839154	0.194316
0	O	0.77011	0.791637	0.160194
0	C	0.769137	0.845249	0.217998
0	H	0.669995	0.761003	0.183605
0	O	0.750827	0.806283	0.137224
0	O	0.675738	0.798346	0.182865
0	C	0.773089	0.831314	0.186056
0	O	0.646341	0.819498	0.21043
0	O	0.656531	0.80547	0.15676
0	Fe	0.772693	0.824333	0.125568
0	C	0.77983	0.855767	0.23454
0	C	0.781328	0.836662	0.203396
0	O	0.778753	0.835501	0.152054
0	H	0.747454	0.847564	0.135069
0	H	0.665469	0.746668	0.243779
0	C	0.785508	0.828151	0.167639
0	H	0.757182	0.746813	0.122175
0	H	0.608534	0.644902	0.364107
0	H	0.547773	0.650315	0.246159
0	O	0.556836	0.63947	0.25271
0	O	0.52661	0.631101	0.266455
0	H	0.614123	0.705529	0.328801
0	H	0.471801	0.707862	0.301932
0	O	0.467143	0.70984	0.317125
0	C	0.545288	0.62823	0.264893
0	H	0.569975	0.696508	0.340935
0	O	0.566712	0.706242	0.35125
0	H	0.572078	0.717929	0.345981
0	H	0.462763	0.726158	0.350222
0	O	0.607715	0.704115	0.36227
0	H	0.6141	0.723616	0.263873
0	F	0.587648	0.741002	0.291256
0	C	0.596483	0.634472	0.365799
0	O	0.616138	0.73773	0.262865
0	H	0.605888	0.741846	0.254197
0	C	0.619068	0.689725	0.362167
0	C	0.735524	0.620503	0.288346
0	Fe	0.718994	0.67091	0.369263
0	H	0.703013	0.639056	0.368676
0	H	0.744579	0.620479	0.360532
0	C	0.783225	0.714943	0.272684
0	H	0.674402	0.644633	0.348254
0	O	0.621736	0.732018	0.306044
0	H	0.658939	0.678968	0.363606
0	H	0.77442	0.659179	0.246539
0	H	0.757229	0.654179	0.260801
0	H	0.70661	0.628509	0.335416
0	C	0.633755	0.690752	0.347181
0	O	0.758347	0.694503	0.330685
0	C	0.642229	0.706441	0.317499
0	C	0.636106	0.721602	0.30268
0	H	0.635143	0.664542	0.268027
0	O	0.645377	0.723839	0.287251
0	O	0.730246	0.727967	0.334119
0	C	0.677103	0.687976	0.252699
0	C	0.653517	0.647779	0.298688
0	F	0.730905	0.702097	0.30385
0	O	0.76942	0.702362	0.27207
0	O	0.729883	0.669626	0.324394
0	C	0.727724	0.738206	0.349167
0	C	0.689131	0.688134	0.33916
0	C	0.662925	0.663064	0.283852
0	Fe	0.755931	0.689802	0.248139
0	C	0.650693	0.668262	0.267352
0	O	0.70883	0.709669	0.256824
0	H	0.691964	0.669038	0.296143
0	H	0.758278	0.635851	0.303589
0	C	0.661617	0.701231	0.319395
0	C	0.74329	0.631133	0.304016
0	C	0.710777	0.692279	0.263761
0	O	0.639099	0.638402	0.293481
0	C	0.771379	0.705468	0.337732
0	C	0.657615	0.680252	0.251806
0	O	0.734941	0.652845	0.351167
0	O	0.700603	0.701308	0.33337
0	C	0.668094	0.690117	0.335782
0	O	0.686049	0.732529	0.275315
0	C	0.732592	0.636308	0.320705
0	C	0.682503	0.671522	0.283804
0	O	0.629138	0.623878	0.342672
0	O	0.69622	0.672917	0.348507
0	O	0.660567	0.642441	0.314901
0	C	0.628717	0.701398	0.330841
0	Fe	0.730275	0.697899	0.331092
0	C	0.7145	0.626735	0.322186
0	O	0.768634	0.713572	0.353875
0	O	0.732432	0.693293	0.359009
0	H	0.672845	0.706066	0.310364
0	C	0.734484	0.654005	0.332838
0	O	0.727833	0.683476	0.263124
0	C	0.653536	0.685197	0.349942
0	O	0.767254	0.663697	0.258348
0	O	0.668566	0.632997	0.355179
0	C	0.689984	0.68313	0.267248
0	H	0.688404	0.727024	0.288273
0	H	0.696568	0.741999	0.271964
0	H	0.778596	0.691485	0.302292
0	H	0.658115	0.629553	0.257947
0	H	0.657309	0.639199	0.36233
0	H	0.635592	0.626172	0.256637
0	H	0.699838	0.741749	0.324228
0	O	0.733358	0.733426	0.366254
0	O	0.78601	0.727253	0.258799
0	O	0.55465	0.84464	0.245096
0	H	0.591155	0.86821	0.315123
0	H	0.596646	0.858046	0.333554
0	C	0.495145	0.862063	0.362562
0	O	0.459791	0.863747	0.359422
0	C	0.488411	0.810651	0.244525
0	O	0.514978	0.833598	0.247659
0	C	0.585886	0.817932	0.248045
0	C	0.599163	0.802688	0.24807
0	C	0.516298	0.820688	0.332528
0	Fe	0.611401	0.753451	0.288425
0	O	0.603384	0.768	0.314131
0	C	0.610053	0.780495	0.346188
0	C	0.613339	0.77976	0.324452
0	O	0.599883	0.775518	0.270137
0	C	0.605032	0.793136	0.26546
0	C	0.466194	0.78522	0.257012
0	C	0.473871	0.804383	0.257857
0	H	0.467484	0.814572	0.268184
0	H	0.577127	0.819161	0.260535
0	H	0.533913	0.801068	0.318068
0	Fe	0.529252	0.859999	0.251615
0	H	0.590393	0.755458	0.347186
0	H	0.544844	0.84793	0.334653
0	O	0.534075	0.815956	0.322644
0	C	0.599526	0.765598	0.355613
0	C	0.530551	0.852239	0.342622
0	F	0.533607	0.851483	0.27662
0	C	0.515006	0.839028	0.342483
0	C	0.497064	0.844543	0.351678
0	O	0.503248	0.80789	0.334774
0	H	0.484709	0.835344	0.350714
0	O	0.619332	0.802284	0.273726
0	C	0.530189	0.869334	0.354906
0	C	0.78571	0.84635	0.311563
0	Fe	0.73417	0.86792	0.343071
0	C	0.767413	0.855169	0.317903
0	C	0.699043	0.812456	0.260719
0	H	0.697482	0.767739	0.245455
0	O	0.645647	0.822218	0.298168
0	H	0.715068	0.849399	0.368817
0	C	0.692566	0.794433	0.255198
0	O	0.760068	0.866439	0.305149
0	O	0.684788	0.867471	0.339602
0	O	0.653198	0.74556	0.251279
0	O	0.720834	0.864149	0.318478
0	C	0.674504	0.787225	0.264213
0	O	0.666116	0.784779	0.308217
0	F	0.672087	0.838518	0.314476
0	O	0.7335	0.844463	0.282209
0	H	0.644967	0.828566	0.284716
0	O	0.626799	0.789672	0.31684
0	O	0.724053	0.74721	0.244807
0	Fe	0.695301	0.850933	0.316536
0	O	0.637681	0.764955	0.28568
0	O	0.757726	0.851329	0.334031
0	C	0.687397	0.770331	0.33121
0	C	0.620286	0.793535	0.358701
0	O	0.753384	0.75813	0.253408
0	C	0.716576	0.756472	0.346527
0	O	0.670514	0.752399	0.308584
0	C	0.70134	0.755601	0.332542
0	C	0.673383	0.769393	0.315188
0	C	0.73141	0.798527	0.265764
0	C	0.716573	0.771724	0.360198
0	H	0.678059	0.857325	0.256287
0	C	0.701674	0.785823	0.359591
0	O	0.705786	0.827624	0.332959
0	O	0.658556	0.797633	0.266886
0	C	0.73506	0.760922	0.251565
0	Fe	0.661004	0.749257	0.280617
0	H	0.632924	0.825961	0.303378
0	C	0.717658	0.814507	0.268487
0	C	0.72438	0.780438	0.256833
0	O	0.720887	0.845037	0.356644
0	O	0.704664	0.834187	0.292977
0	H	0.631852	0.80146	0.351975
0	C	0.688426	0.78601	0.343831
0	H	0.730488	0.835796	0.361393
0	C	0.70517	0.779915	0.251556
0	C	0.719525	0.832105	0.282255
0	H	0.706739	0.815385	0.3261
0	H	0.745967	0.799021	0.269896
0	O	0.677265	0.771892	0.273579
0	Fe	0.642329	0.792532	0.291431
0	H	0.687375	0.822081	0.265083
0	H	0.778947	0.8163	0.321137
0	H	0.676568	0.796816	0.342191
0	O	0.52875	0.715069	0.479421
0	C	0.532234	0.733094	0.478541
0	O	0.512324	0.678436	0.48012
0	H	0.504265	0.726475	0.449594
0	H	0.511616	0.666195	0.486331
0	H	0.498241	0.682044	0.478712
0	O	0.596996	0.699683	0.401406
0	Fe	0.595781	0.718559	0.420893
0	O	0.59102	0.697849	0.441127
0	C	0.599282	0.681733	0.445545
0	O	0.586758	0.659174	0.399512
0	Fe	0.611585	0.67544	0.403658
0	O	0.566653	0.723516	0.41603
0	C	0.578208	0.677086	0.473508
0	C	0.595953	0.673874	0.465065
0	H	0.565592	0.681166	0.463609
0	H	0.560892	0.718525	0.427934
0	C	0.611418	0.668173	0.477287
0	O	0.609228	0.672527	0.433499
0	C	0.579083	0.658691	0.382651
0	O	0.554952	0.701243	0.391726
0	H	0.471585	0.667152	0.467616
0	O	0.487922	0.649265	0.405571
0	C	0.489415	0.641046	0.422289
0	O	0.467549	0.654339	0.473113
0	H	0.474309	0.654238	0.486493
0	H	0.550111	0.68687	0.390804
0	O	0.602536	0.739738	0.401385
0	H	0.46687	0.724813	0.482424
0	H	0.549458	0.632734	0.379829
0	O	0.59573	0.73895	0.443351
0	H	0.56292	0.737491	0.413687
0	C	0.51123	0.740508	0.448497
0	C	0.576268	0.677108	0.493647
0	O	0.490678	0.651758	0.439732
0	C	0.461789	0.734242	0.492963
0	H	0.584962	0.734519	0.451388
0	Fe	0.581498	0.702996	0.377594
0	O	0.580969	0.733432	0.37907
0	O	0.618734	0.676178	0.374839
0	H	0.486494	0.666551	0.435847
0	C	0.56326	0.628086	0.374506
0	O	0.472198	0.738573	0.433121
0	O	0.540665	0.742245	0.492463
0	H	0.606936	0.734575	0.451272
0	C	0.52754	0.744078	0.460165
0	C	0.579097	0.640007	0.374291
0	O	0.578141	0.673743	0.372056
0	F	0.625744	0.651598	0.404097
0	O	0.625346	0.715185	0.426043
0	H	0.626025	0.669175	0.47066
0	H	0.777286	0.672015	0.473134
0	O	0.725126	0.707225	0.396848
0	H	0.735665	0.687529	0.42975
0	O	0.68078	0.722961	0.477636
0	O	0.704231	0.726584	0.445435
0	C	0.707465	0.700687	0.39717
0	O	0.764053	0.628844	0.400864
0	C	0.638831	0.704922	0.418187
0	C	0.692695	0.731422	0.409176
0	C	0.773935	0.674065	0.457769
0	O	0.636626	0.688986	0.409283
0	C	0.749518	0.681883	0.433747
0	H	0.717326	0.726024	0.439956
0	C	0.743981	0.691808	0.467912
0	C	0.691055	0.6548	0.45984
0	C	0.755357	0.677065	0.397901
0	O	0.738101	0.669129	0.394319
0	O	0.746004	0.68635	0.485724
0	O	0.762321	0.72989	0.3947
0	C	0.762241	0.676851	0.418607
0	O	0.735418	0.70763	0.463035
0	C	0.755965	0.682529	0.453509
0	O	0.763458	0.688294	0.385949
0	H	0.717132	0.65823	0.441755
0	H	0.668409	0.64384	0.478643
0	O	0.702855	0.687032	0.385379
0	C	0.706712	0.648494	0.447299
0	C	0.707541	0.629065	0.440543
0	C	0.659922	0.731948	0.421494
0	H	0.671726	0.685983	0.408667
0	O	0.680568	0.678388	0.484313
0	Fe	0.708296	0.714613	0.472036
0	C	0.678115	0.640718	0.466825
0	C	0.65839	0.711822	0.418843
0	C	0.690345	0.674738	0.468536
0	C	0.692012	0.711062	0.40818
0	O	0.70415	0.647229	0.380814
0	O	0.701208	0.687622	0.461354
0	C	0.674411	0.701103	0.412525
0	Fe	0.74776	0.710572	0.37564
0	C	0.780861	0.628158	0.409367
0	H	0.705432	0.739339	0.403319
0	H	0.647855	0.740273	0.427162
0	H	0.753632	0.740752	0.397443
0	H	0.699987	0.740135	0.446966
0	C	0.677148	0.740933	0.418056
0	O	0.716793	0.74081	0.481385
0	C	0.78224	0.67507	0.424068
0	H	0.690782	0.651871	0.382369
0	C	0.72571	0.621227	0.429671
0	C	0.679594	0.620707	0.460767
0	H	0.774404	0.734622	0.387778
0	C	0.677459	0.7301	0.493986
0	O	0.741579	0.622263	0.438163
0	C	0.734296	0.743561	0.486621
0	O	0.736223	0.62258	0.37211
0	H	0.763311	0.624658	0.466645
0	O	0.74568	0.729623	0.491334
0	H	0.782254	0.648978	0.374692
0	C	0.593667	0.744738	0.385915
0	C	0.59861	0.763391	0.376476
0	O	0.579012	0.832366	0.453732
0	O	0.541341	0.839798	0.468314
0	Fe	0.561559	0.822603	0.474991
0	O	0.502449	0.844722	0.45179
0	C	0.474946	0.83461	0.470391
0	C	0.495604	0.841422	0.468928
0	O	0.47775	0.764525	0.414617
0	O	0.525969	0.811239	0.442149
0	O	0.550894	0.799972	0.45881
0	C	0.53726	0.761986	0.45728
0	C	0.528977	0.776745	0.446111
0	C	0.502748	0.754623	0.435883
0	C	0.512074	0.77333	0.435411
0	C	0.483217	0.75174	0.427331
0	C	0.535776	0.797117	0.448133
0	H	0.549404	0.76475	0.465894
0	H	0.506126	0.785181	0.42797
0	O	0.583642	0.803139	0.481758
0	C	0.608319	0.776804	0.387572
0	Fe	0.530582	0.839884	0.44129
0	F	0.52048	0.839084	0.416786
0	C	0.574581	0.836882	0.436489
0	H	0.475738	0.821498	0.442831
0	H	0.611954	0.83977	0.446451
0	C	0.590983	0.844234	0.423995
0	O	0.557893	0.835584	0.429192
0	C	0.608937	0.846779	0.431978
0	O	0.466174	0.795574	0.389009
0	C	0.46695	0.825274	0.454958
0	C	0.587071	0.853047	0.405538
0	H	0.607254	0.774573	0.403539
0	H	0.571713	0.854025	0.401403
0	O	0.505048	0.844515	0.484161
0	C	0.464132	0.836298	0.487914
0	H	0.594071	0.80479	0.471454
0	Fe	0.530538	0.858146	0.487336
0	H	0.457496	0.806326	0.386016
0	H	0.468061	0.789327	0.375878
0	C	0.602237	0.862443	0.396036
0	O	0.57449	0.843029	0.493174
0	C	0.619389	0.791844	0.379333
0	O	0.4561	0.795042	0.430974
0	H	0.587537	0.810229	0.494194
0	H	0.776108	0.810996	0.413872
0	C	0.621143	0.861556	0.402767
0	O	0.776004	0.804198	0.426377
0	H	0.629035	0.796566	0.455658
0	O	0.67009	0.849889	0.374636
0	H	0.638764	0.775941	0.455725
0	C	0.624862	0.851061	0.420243
0	O	0.632627	0.785573	0.446791
0	O	0.644288	0.816919	0.387127
0	C	0.771876	0.84979	0.453876
0	O	0.640308	0.823337	0.430687
0	Fe	0.654382	0.797686	0.430243
0	O	0.666343	0.77089	0.430984
0	C	0.68178	0.792242	0.45983
0	O	0.695721	0.787821	0.448
0	Fe	0.672003	0.828026	0.395563
0	C	0.729788	0.78008	0.48202
0	C	0.67795	0.76223	0.419836
0	C	0.736038	0.799329	0.486562
0	C	0.675366	0.763075	0.479065
0	H	0.67221	0.755625	0.466251
0	C	0.739952	0.846223	0.437376
0	H	0.742729	0.831748	0.438937
0	O	0.698456	0.840559	0.404938
0	O	0.658679	0.845948	0.415678
0	O	0.710454	0.822834	0.428808
0	O	0.66881	0.804577	0.454917
0	O	0.674681	0.80707	0.414351
0	C	0.680324	0.782487	0.478755
0	O	0.640019	0.790324	0.40619
0	O	0.690741	0.770716	0.410139
0	C	0.635274	0.800558	0.391561
0	F	0.725214	0.785202	0.424197
0	O	0.771162	0.831661	0.458375
0	C	0.723835	0.852761	0.427107
0	H	0.716807	0.77741	0.474696
0	C	0.725832	0.818642	0.480389
0	C	0.64325	0.840308	0.424315
0	C	0.710454	0.838253	0.419179
0	O	0.710059	0.800929	0.390582
0	Fe	0.700625	0.795942	0.419272
0	C	0.741452	0.764361	0.486921
0	C	0.754654	0.858833	0.444814
0	C	0.698405	0.799495	0.376
0	O	0.683154	0.810075	0.375625
0	O	0.71229	0.820208	0.467974
0	H	0.724239	0.847411	0.482651
0	C	0.760075	0.767978	0.49289
0	H	0.771959	0.756681	0.492248
0	H	0.676104	0.861048	0.381115
0	O	0.73389	0.835906	0.486492
0	H	0.727274	0.771079	0.373347
0	O	0.784114	0.791923	0.466768
0	H	0.65689	0.853197	0.373246
0	C	0.784392	0.791369	0.485784
0	H	0.633149	0.868825	0.395634
0	H	0.762493	0.805484	0.43051
0	C	0.608367	0.664127	0.497121
0	O	0.569933	0.65338	0.616444
0	H	0.527002	0.621609	0.495809
0	H	0.57142	0.641915	0.584208
0	C	0.542133	0.725819	0.609881
0	C	0.464255	0.685095	0.568994
0	C	0.602568	0.681997	0.605034
0	O	0.496023	0.712529	0.501779
0	C	0.590167	0.668817	0.506117
0	O	0.544357	0.68158	0.501877
0	C	0.560705	0.689244	0.499778
0	Fe	0.519329	0.716886	0.546725
0	O	0.53133	0.715296	0.521744
0	O	0.504906	0.718084	0.572863
0	O	0.491989	0.716442	0.533204
0	C	0.486167	0.719767	0.515865
0	Fe	0.521189	0.697614	0.501767
0	O	0.519636	0.687732	0.549104
0	O	0.511302	0.677154	0.520296
0	Fe	0.554794	0.729436	0.516126
0	O	0.546759	0.720112	0.560907
0	O	0.563461	0.707013	0.499367
0	O	0.569168	0.717553	0.537351
0	C	0.50853	0.678456	0.538439
0	C	0.564456	0.718473	0.555178
0	H	0.503624	0.732534	0.575433
0	H	0.491458	0.714335	0.570853
0	O	0.605887	0.665711	0.596876
0	Fe	0.596301	0.638685	0.608764
0	O	0.582378	0.632782	0.583121
0	C	0.487456	0.67521	0.545246
0	H	0.494571	0.679964	0.575739
0	H	0.553916	0.687431	0.60478
0	C	0.585388	0.700527	0.579493
0	C	0.580836	0.717187	0.569107
0	C	0.600582	0.699167	0.593297
0	H	0.574404	0.689039	0.576444
0	H	0.587088	0.668572	0.521402
0	C	0.592348	0.733749	0.57264
0	C	0.483311	0.678681	0.565004
0	H	0.476821	0.669968	0.516085
0	C	0.472901	0.673152	0.531537
0	C	0.467623	0.730205	0.512074
0	O	0.472822	0.687897	0.60292
0	C	0.609001	0.732819	0.583715
0	C	0.612421	0.714605	0.595736
0	O	0.555179	0.727137	0.597161
0	H	0.46577	0.742257	0.541987
0	C	0.459949	0.742645	0.526556
0	C	0.459505	0.688879	0.589177
0	O	0.529632	0.741077	0.612937
0	F	0.577169	0.743383	0.511012
0	H	0.590445	0.639183	0.57349
0	C	0.454338	0.680162	0.534787
0	H	0.489922	0.722658	0.613384
0	H	0.776212	0.690124	0.587862
0	O	0.621545	0.626187	0.596877
0	H	0.642834	0.621953	0.565791
0	O	0.624555	0.660162	0.528051
0	C	0.625638	0.660293	0.509682
0	O	0.784004	0.688366	0.599274
0	H	0.625898	0.714304	0.605174
0	O	0.642745	0.655911	0.500317
0	O	0.721304	0.650455	0.612529
0	H	0.688758	0.707802	0.544749
0	O	0.730614	0.723945	0.529623
0	C	0.725368	0.659626	0.562368
0	C	0.639597	0.625886	0.603676
0	H	0.72345	0.729517	0.589594
0	H	0.719732	0.626057	0.525815
0	O	0.675246	0.717827	0.508067
0	C	0.723517	0.652737	0.5431
0	H	0.660393	0.687423	0.534616
0	O	0.705674	0.666631	0.516143
0	F	0.764367	0.705898	0.516627
0	O	0.666482	0.678112	0.525487
0	O	0.700777	0.702972	0.537831
0	C	0.716265	0.733518	0.603767
0	H	0.651683	0.647547	0.510681
0	C	0.729443	0.626044	0.574546
0	Fe	0.690777	0.691466	0.510825
0	C	0.720383	0.667283	0.527715
0	H	0.673075	0.668974	0.534169
0	H	0.722842	0.674977	0.566122
0	C	0.732233	0.654655	0.59779
0	H	0.740163	0.721394	0.540025
0	C	0.723204	0.632114	0.540149
0	O	0.733167	0.681389	0.526797
0	Fe	0.738401	0.704882	0.507882
0	C	0.72781	0.646312	0.578407
0	O	0.746671	0.666325	0.597547
0	O	0.712233	0.703799	0.497246
0	H	0.734251	0.737454	0.525526
0	O	0.779863	0.650404	0.617111
0	C	0.572451	0.86151	0.495191
0	O	0.463307	0.865063	0.550526
0	O	0.545601	0.811347	0.495962
0	H	0.587024	0.748455	0.564758
0	O	0.456688	0.838302	0.585152
0	O	0.516791	0.746376	0.543859
0	F	0.46009	0.773381	0.588206
0	C	0.610042	0.864018	0.553654
0	O	0.580663	0.82226	0.608305
0	O	0.546281	0.753275	0.532321
0	C	0.511698	0.787087	0.554104
0	C	0.538184	0.792079	0.531096
0	C	0.527689	0.779893	0.543874
0	C	0.532443	0.810919	0.527094
0	C	0.538955	0.820948	0.510689
0	C	0.530451	0.758389	0.540492
0	O	0.476882	0.803569	0.570813
0	C	0.485263	0.812119	0.556254
0	C	0.516033	0.817625	0.536552
0	C	0.504525	0.806157	0.549603
0	O	0.53761	0.839773	0.510069
0	H	0.501914	0.777231	0.561553
0	H	0.55014	0.786889	0.523052
0	H	0.50997	0.83219	0.534156
0	O	0.573995	0.814853	0.56564
0	O	0.475852	0.825313	0.547518
0	Fe	0.591534	0.834954	0.581995
0	H	0.469392	0.843831	0.499869
0	H	0.561484	0.820622	0.560892
0	H	0.597574	0.847377	0.521416
0	O	0.569962	0.854053	0.577534
0	H	0.570326	0.803689	0.574004
0	C	0.595975	0.863213	0.520807
0	O	0.602388	0.847153	0.557263
0	O	0.607262	0.854083	0.597008
0	O	0.612111	0.812382	0.584413
0	H	0.614666	0.807712	0.570553
0	H	0.529102	0.749489	0.599479
0	C	0.56311	0.868776	0.586604
0	O	0.617199	0.765956	0.578601
0	Fe	0.596188	0.868664	0.618083
0	H	0.468102	0.859889	0.616361
0	O	0.454292	0.774757	0.548421
0	H	0.785323	0.815862	0.52858
0	H	0.640967	0.795218	0.612192
0	C	0.784269	0.831283	0.535187
0	H	0.690667	0.806595	0.49469
0	C	0.766648	0.786678	0.496082
0	C	0.752854	0.801761	0.497243
0	C	0.676724	0.752078	0.496557
0	H	0.757933	0.816067	0.500866
0	C	0.68607	0.791897	0.495685
0	C	0.783927	0.758327	0.608342
0	H	0.663835	0.864875	0.566221
0	C	0.751639	0.780828	0.598086
0	O	0.695952	0.84746	0.537852
0	C	0.749641	0.825108	0.546647
0	C	0.763676	0.766918	0.610576
0	C	0.749748	0.866175	0.600498
0	H	0.648464	0.828167	0.580679
0	C	0.729793	0.865111	0.600427
0	C	0.720737	0.846802	0.593002
0	C	0.763956	0.857456	0.547946
0	C	0.623033	0.748845	0.584304
0	H	0.758888	0.855693	0.592742
0	C	0.683496	0.761458	0.513782
0	Fe	0.711441	0.804629	0.597911
0	O	0.714523	0.778822	0.539239
0	F	0.750092	0.765349	0.548668
0	C	0.767171	0.837592	0.544757
0	H	0.670658	0.860277	0.586162
0	O	0.718055	0.804693	0.570742
0	C	0.705459	0.765035	0.587932
0	O	0.639947	0.748256	0.591974
0	O	0.7345	0.833418	0.548599
0	H	0.672483	0.820585	0.546301
0	H	0.678734	0.803643	0.561019
0	H	0.750368	0.862489	0.55396
0	H	0.644115	0.837001	0.560383
0	H	0.706748	0.855092	0.533525
0	H	0.692075	0.840716	0.525506
0	O	0.719501	0.764033	0.576237
0	C	0.689425	0.781448	0.513072
0	C	0.70374	0.790289	0.528192
0	Fe	0.734621	0.784577	0.560051
0	O	0.750864	0.806295	0.546068
0	C	0.704024	0.750574	0.603793
0	O	0.642289	0.848588	0.613694
0	Fe	0.707204	0.825458	0.554853
0	O	0.686297	0.820721	0.592728
0	O	0.736315	0.78894	0.60518
0	O	0.726447	0.83078	0.601722
0	O	0.709472	0.845916	0.577938
0	O	0.756295	0.784644	0.580718
0	O	0.704037	0.808716	0.530967
0	H	0.624983	0.776546	0.587499
0	O	0.677845	0.817576	0.559188
0	O	0.696455	0.780375	0.590942
0	H	0.675518	0.811215	0.593406
0	O	0.637994	0.83465	0.573556
0	H	0.685087	0.754073	0.52781
0	Fe	0.633271	0.861083	0.588446
0	O	0.568496	0.734862	0.711207
0	O	0.533183	0.713991	0.726752
0	C	0.526724	0.730884	0.732052
0	Fe	0.56171	0.706281	0.71814
0	O	0.553624	0.677916	0.723977
0	O	0.554965	0.701025	0.690268
0	O	0.590664	0.695166	0.713847
0	O	0.539575	0.728394	0.682195
0	C	0.54442	0.711027	0.67842
0	H	0.565001	0.672398	0.730707
0	H	0.55239	0.669459	0.712071
0	O	0.504273	0.636384	0.727708
0	O	0.521677	0.647784	0.702061
0	C	0.489224	0.674659	0.694747
0	C	0.491479	0.663817	0.711727
0	C	0.507017	0.648816	0.713433
0	O	0.537594	0.645506	0.666122
0	H	0.498162	0.671373	0.681775
0	H	0.524929	0.648829	0.659013
0	H	0.544966	0.63849	0.656141
0	Fe	0.603856	0.666964	0.648889
0	O	0.577097	0.657538	0.648894
0	F	0.596804	0.689891	0.662017
0	C	0.541892	0.702308	0.658759
0	C	0.548473	0.683546	0.654164
0	H	0.554899	0.675118	0.666994
0	C	0.606323	0.702369	0.706396
0	H	0.487621	0.64174	0.651627
0	C	0.480262	0.629178	0.646313
0	Fe	0.475049	0.694899	0.632497
0	O	0.606354	0.654253	0.675769
0	C	0.467072	0.696168	0.674497
0	C	0.566415	0.661219	0.633869
0	C	0.552627	0.677394	0.635247
0	O	0.480136	0.700631	0.661725
0	C	0.536443	0.714898	0.642689
0	H	0.534796	0.729711	0.646757
0	C	0.477267	0.664518	0.726222
0	C	0.47167	0.685989	0.693259
0	O	0.609165	0.64363	0.633984
0	H	0.594306	0.656457	0.683819
0	O	0.559479	0.627445	0.69668
0	C	0.459982	0.675042	0.724183
0	O	0.468943	0.666667	0.640372
0	O	0.504759	0.688433	0.631776
0	C	0.458053	0.6858	0.707279
0	Fe	0.531189	0.624586	0.686344
0	O	0.545935	0.632695	0.731721
0	O	0.60829	0.720406	0.702213
0	C	0.465902	0.634398	0.632369
0	C	0.460766	0.65496	0.629333
0	H	0.567239	0.631846	0.68489
0	C	0.541969	0.709854	0.62396
0	H	0.557627	0.626572	0.737786
0	O	0.505223	0.621998	0.676319
0	O	0.458245	0.735201	0.650432
0	O	0.481591	0.722985	0.625194
0	Fe	0.595492	0.742877	0.716972
0	O	0.595701	0.728681	0.743824
0	O	0.599404	0.683809	0.623568
0	H	0.479925	0.656186	0.73912
0	H	0.491216	0.727222	0.635279
0	C	0.549239	0.691639	0.619525
0	H	0.45808	0.743832	0.661577
0	H	0.510375	0.685924	0.644675
0	H	0.598492	0.620231	0.661883
0	H	0.506459	0.675914	0.625267
0	H	0.621876	0.674677	0.73015
0	H	0.781128	0.624464	0.710627
0	H	0.685006	0.674352	0.645829
0	C	0.623874	0.690751	0.702117
0	O	0.782283	0.647118	0.648955
0	H	0.696288	0.722963	0.737917
0	C	0.647441	0.643679	0.723607
0	Fe	0.719487	0.667647	0.637173
0	C	0.72423	0.690451	0.714698
0	C	0.62995	0.676421	0.715954
0	O	0.747748	0.666791	0.639979
0	C	0.717687	0.70291	0.730469
0	C	0.64354	0.661309	0.711805
0	O	0.736045	0.669475	0.681286
0	O	0.64244	0.646792	0.65871
0	Fe	0.758823	0.659702	0.66374
0	O	0.715292	0.643567	0.656027
0	C	0.701526	0.723057	0.707514
0	C	0.72334	0.682754	0.678781
0	C	0.701994	0.715106	0.726303
0	H	0.718994	0.729389	0.652549
0	O	0.745936	0.634266	0.663744
0	H	0.735306	0.679835	0.717418
0	F	0.770978	0.653364	0.687978
0	O	0.631627	0.67523	0.647658
0	C	0.706406	0.711166	0.691691
0	O	0.716086	0.684892	0.662008
0	C	0.653636	0.662075	0.693843
0	C	0.642179	0.665499	0.659146
0	C	0.713499	0.732889	0.638918
0	O	0.662311	0.632881	0.720834
0	O	0.768971	0.687063	0.665808
0	C	0.727736	0.632564	0.664742
0	H	0.632154	0.702097	0.672286
0	C	0.716962	0.693819	0.695222
0	C	0.633872	0.690147	0.683746
0	H	0.701521	0.715483	0.677368
0	O	0.689806	0.668258	0.633606
0	H	0.663168	0.650082	0.690043
0	C	0.645511	0.674138	0.678229
0	O	0.635504	0.638203	0.737133
0	H	0.73018	0.627978	0.702703
0	C	0.709389	0.743387	0.706413
0	Fe	0.62817	0.62467	0.645085
0	H	0.686154	0.677195	0.623259
0	O	0.786013	0.687369	0.639446
0	C	0.720804	0.724661	0.621531
0	C	0.7317	0.70586	0.622692
0	C	0.784765	0.690824	0.657384
0	H	0.766279	0.7436	0.709207
0	F	0.699318	0.61978	0.722804
0	H	0.785481	0.737068	0.653533
0	O	0.750648	0.70486	0.62212
0	Fe	0.764803	0.677435	0.619674
0	O	0.64459	0.631077	0.621211
0	O	0.721556	0.691014	0.619523
0	C	0.587429	0.825195	0.625845
0	O	0.531538	0.746065	0.722993
0	C	0.467356	0.853004	0.646653
0	O	0.585322	0.764676	0.731842
0	O	0.558597	0.775329	0.716258
0	C	0.572634	0.777234	0.729142
0	O	0.491782	0.819296	0.739021
0	Fe	0.549657	0.750813	0.699095
0	O	0.596461	0.759843	0.690729
0	F	0.529844	0.766887	0.68896
0	O	0.566751	0.761026	0.675946
0	C	0.585172	0.765535	0.676184
0	C	0.584373	0.794164	0.650597
0	C	0.593544	0.777949	0.659843
0	H	0.569576	0.796895	0.654853
0	H	0.504509	0.822326	0.733502
0	H	0.484496	0.830608	0.73422
0	O	0.590754	0.842627	0.63224
0	C	0.59518	0.807222	0.637966
0	C	0.463485	0.84995	0.626508
0	H	0.54504	0.801824	0.738794
0	C	0.614638	0.80292	0.634583
0	C	0.613274	0.77517	0.656033
0	H	0.506987	0.764711	0.742891
0	C	0.574256	0.794129	0.742514
0	H	0.472082	0.860097	0.707252
0	C	0.462095	0.83862	0.660311
0	O	0.485219	0.868852	0.671998
0	C	0.454367	0.833182	0.620539
0	H	0.464824	0.840344	0.675739
0	H	0.567955	0.868246	0.721925
0	H	0.622094	0.813513	0.625325
0	C	0.679311	0.869304	0.66104
0	H	0.68493	0.769722	0.620569
0	H	0.620726	0.761347	0.661837
0	C	0.623015	0.786522	0.642222
0	O	0.62244	0.866135	0.633043
0	O	0.726627	0.745171	0.700878
0	C	0.779439	0.744545	0.640702
0	H	0.625971	0.762445	0.711885
0	H	0.737606	0.763493	0.6264
0	H	0.623229	0.75991	0.735411
0	H	0.77455	0.764176	0.717682
0	C	0.643895	0.781596	0.636915
0	C	0.63729	0.854695	0.63087
0	O	0.65187	0.768401	0.64767
0	C	0.752144	0.759201	0.624609
0	O	0.703888	0.804172	0.62676
0	C	0.651879	0.852644	0.647326
0	O	0.692661	0.762155	0.670658
0	O	0.666733	0.777163	0.704368
0	O	0.721901	0.782758	0.68657
0	H	0.767143	0.843115	0.674735
0	C	0.773837	0.823343	0.69918
0	C	0.659478	0.834508	0.653708
0	H	0.662191	0.789071	0.710931
0	C	0.687388	0.840647	0.731365
0	C	0.776057	0.840518	0.688292
0	O	0.707798	0.817543	0.66707
0	C	0.716753	0.791519	0.730525
0	H	0.658013	0.77644	0.692784
0	C	0.761391	0.75299	0.642295
0	O	0.682314	0.802519	0.679071
0	Fe	0.695144	0.78041	0.694974
0	C	0.689371	0.816327	0.669059
0	O	0.70223	0.795786	0.719114
0	H	0.653962	0.821563	0.647797
0	O	0.752924	0.756161	0.676372
0	C	0.677274	0.833859	0.664155
0	O	0.623046	0.753052	0.722894
0	O	0.674287	0.829596	0.721543
0	O	0.752642	0.781565	0.657247
0	F	0.735341	0.811103	0.642992
0	H	0.682114	0.825881	0.708056
0	O	0.730559	0.78095	0.725049
0	O	0.712601	0.779003	0.648951
0	Fe	0.729253	0.797125	0.664287
0	C	0.686407	0.851104	0.66787
0	C	0.754939	0.763835	0.659805
0	C	0.701042	0.764266	0.653695
0	O	0.700851	0.757691	0.713114
0	O	0.760783	0.792609	0.700177
0	C	0.759051	0.810008	0.69367
0	C	0.700519	0.748756	0.638158
0	O	0.763031	0.754864	0.717322
0	Fe	0.742212	0.769439	0.701079
0	O	0.745594	0.814721	0.682142
0	H	0.699221	0.850979	0.676729
0	H	0.703072	0.818428	0.628747
0	O	0.702106	0.848078	0.722816
0	H	0.783615	0.807334	0.724997
0	H	0.690237	0.801234	0.626592
0	H	0.737343	0.860834	0.736207
0	C	0.694047	0.755584	0.620891
0	O	0.652906	0.790359	0.621697
0	O	0.785663	0.862466	0.624585
0	O	0.510324	0.727075	0.868882
0	O	0.518784	0.623084	0.764276
0	H	0.527283	0.634746	0.765447
0	O	0.569139	0.7088	0.747032
0	C	0.514452	0.734666	0.75003
0	F	0.457553	0.643779	0.786517
0	O	0.529733	0.733473	0.831977
0	O	0.547425	0.726477	0.858858
0	C	0.542888	0.737765	0.845164
0	Fe	0.505078	0.719175	0.840709
0	O	0.522499	0.696062	0.841514
0	Fe	0.543238	0.695989	0.862379
0	O	0.520164	0.655119	0.84719
0	O	0.482446	0.702173	0.851141
0	O	0.492637	0.67212	0.825167
0	H	0.490756	0.658722	0.826988
0	Fe	0.52193	0.67527	0.82332
0	F	0.521716	0.655301	0.807986
0	O	0.552233	0.679875	0.816295
0	C	0.592928	0.716327	0.816777
0	C	0.566002	0.690849	0.82307
0	C	0.58008	0.701589	0.809927
0	C	0.583549	0.717875	0.754195
0	C	0.577793	0.701873	0.788243
0	C	0.588168	0.714345	0.775731
0	O	0.565811	0.694699	0.841207
0	O	0.49565	0.710703	0.813302
0	O	0.520479	0.695345	0.80076
0	C	0.515424	0.721422	0.765584
0	C	0.506511	0.724662	0.783525
0	C	0.507316	0.708775	0.799447
0	H	0.564646	0.694546	0.783627
0	H	0.523541	0.708091	0.763414
0	H	0.487481	0.675009	0.812643
0	C	0.525256	0.655465	0.865241
0	C	0.603374	0.725713	0.784255
0	H	0.592534	0.718709	0.83264
0	C	0.604629	0.727928	0.804571
0	H	0.489608	0.692603	0.85767
0	H	0.611037	0.736902	0.776131
0	H	0.475969	0.742374	0.834016
0	C	0.497713	0.742731	0.786839
0	H	0.652226	0.628817	0.847739
0	C	0.654138	0.6479	0.868489
0	H	0.766509	0.690688	0.745759
0	C	0.712912	0.622401	0.822572
0	C	0.72461	0.717316	0.865987
0	O	0.781846	0.731039	0.744664
0	H	0.733695	0.668961	0.866739
0	O	0.639912	0.657872	0.861604
0	H	0.720194	0.702476	0.863101
0	H	0.776088	0.66743	0.790014
0	O	0.781561	0.716276	0.817284
0	H	0.767986	0.642874	0.839521
0	H	0.691709	0.719027	0.804873
0	O	0.726148	0.728277	0.816925
0	H	0.731068	0.64697	0.83182
0	C	0.700039	0.647565	0.793324
0	C	0.719188	0.642191	0.82215
0	Fe	0.762229	0.693542	0.81152
0	C	0.693962	0.627844	0.793092
0	O	0.682626	0.628369	0.759884
0	C	0.728519	0.729636	0.850784
0	O	0.743729	0.705356	0.831976
0	O	0.719512	0.70292	0.763599
0	O	0.715452	0.688435	0.800768
0	Fe	0.723146	0.715983	0.790448
0	O	0.743943	0.717655	0.747471
0	H	0.69511	0.656783	0.782189
0	C	0.724575	0.673107	0.804593
0	O	0.742927	0.671119	0.806016
0	F	0.773875	0.680525	0.831815
0	O	0.751069	0.709606	0.789475
0	O	0.773615	0.692443	0.757928
0	Fe	0.766003	0.719836	0.76788
0	C	0.728366	0.706596	0.748077
0	O	0.772496	0.638681	0.852322
0	O	0.694191	0.722862	0.791352
0	H	0.692483	0.737497	0.790991
0	C	0.713563	0.654166	0.806719
0	C	0.733343	0.720883	0.832158
0	O	0.662817	0.633348	0.858382
0	O	0.727374	0.743993	0.7783
0	O	0.78175	0.680155	0.792849
0	H	0.634077	0.741791	0.860326
0	O	0.455234	0.809621	0.798142
0	O	0.488667	0.744785	0.839372
0	C	0.616082	0.745904	0.811132
0	H	0.486359	0.750091	0.852718
0	H	0.490226	0.745699	0.800821
0	O	0.566261	0.865653	0.848282
0	C	0.557791	0.804151	0.746797
0	H	0.569573	0.858662	0.860772
0	H	0.602152	0.786118	0.752188
0	C	0.511046	0.862496	0.777637
0	H	0.538479	0.850646	0.834871
0	C	0.506891	0.753465	0.754719
0	Fe	0.481682	0.804322	0.814992
0	O	0.497202	0.821527	0.797799
0	F	0.468112	0.787105	0.830293
0	Fe	0.494816	0.820455	0.769107
0	O	0.50572	0.798081	0.832461
0	O	0.530642	0.816422	0.823609
0	O	0.595306	0.806448	0.83241
0	C	0.557818	0.797657	0.843621
0	C	0.56931	0.764218	0.848537
0	C	0.538801	0.790622	0.841988
0	C	0.549976	0.757753	0.844355
0	C	0.534673	0.770521	0.84345
0	C	0.592337	0.793094	0.844692
0	C	0.523974	0.802241	0.831982
0	O	0.522104	0.813368	0.765104
0	C	0.590863	0.796483	0.754136
0	C	0.556739	0.815846	0.764146
0	C	0.537021	0.822369	0.77148
0	C	0.604963	0.806128	0.785362
0	C	0.572891	0.818976	0.77642
0	C	0.590216	0.809526	0.770883
0	O	0.536442	0.833322	0.78667
0	O	0.4903	0.781012	0.798514
0	O	0.488277	0.791252	0.767852
0	C	0.498405	0.757609	0.773599
0	C	0.491636	0.777787	0.779818
0	Fe	0.517572	0.837665	0.809305
0	O	0.47467	0.824966	0.837111
0	O	0.501842	0.843763	0.834196
0	C	0.488065	0.836464	0.844004
0	H	0.520201	0.764866	0.841973
0	H	0.572209	0.827483	0.789493
0	O	0.464942	0.82456	0.770046
0	C	0.572804	0.784606	0.847264
0	O	0.604998	0.78311	0.853399
0	O	0.505394	0.850181	0.763778
0	H	0.561206	0.813102	0.843137
0	O	0.538841	0.855509	0.821161
0	O	0.505054	0.859114	0.794532
0	O	0.610364	0.819733	0.796333
0	H	0.55047	0.848458	0.816326
0	O	0.610002	0.846034	0.826513
0	H	0.58096	0.753291	0.850288
0	O	0.610318	0.788737	0.786833
0	C	0.486558	0.843177	0.864769
0	O	0.613968	0.75237	0.828407
0	H	0.596448	0.846545	0.821071
0	H	0.608876	0.850079	0.839985
0	C	0.491177	0.86204	0.867756
0	H	0.579207	0.868703	0.843723
0	O	0.647865	0.792853	0.857156
0	H	0.675692	0.783527	0.795872
0	C	0.669096	0.834183	0.763708
0	O	0.767906	0.834679	0.788378
0	O	0.783085	0.839119	0.867491
0	H	0.704608	0.867384	0.752617
0	H	0.726388	0.826228	0.749063
0	H	0.740525	0.757508	0.841644
0	Fe	0.620973	0.817837	0.824266
0	Fe	0.77003	0.812061	0.866299
0	O	0.758452	0.74868	0.77626
0	O	0.630592	0.754465	0.866265
0	H	0.66495	0.759765	0.845926
0	O	0.753995	0.785376	0.864496
0	O	0.687368	0.833492	0.849783
0	C	0.757271	0.831149	0.773213
0	C	0.652822	0.824982	0.79528
0	O	0.628629	0.75436	0.799978
0	C	0.737269	0.776648	0.772498
0	Fe	0.63075	0.772745	0.843021
0	O	0.666418	0.775327	0.803017
0	O	0.672409	0.862323	0.855855
0	H	0.757667	0.81203	0.83306
0	C	0.74938	0.793647	0.777694
0	C	0.667873	0.836627	0.784066
0	C	0.642292	0.809711	0.862819
0	O	0.656299	0.759463	0.833895
0	H	0.763035	0.832815	0.837406
0	O	0.630595	0.820111	0.852754
0	Fe	0.637475	0.782505	0.795402
0	H	0.677435	0.854168	0.808404
0	H	0.659317	0.824132	0.75623
0	O	0.756687	0.842691	0.759285
0	C	0.691655	0.862305	0.781566
0	C	0.683732	0.844014	0.752414
0	C	0.686174	0.848311	0.860209
0	O	0.647185	0.808864	0.787126
0	F	0.642344	0.775288	0.770174
0	H	0.77882	0.751502	0.829463
0	C	0.680044	0.850544	0.793435
0	O	0.646493	0.829891	0.812247
0	H	0.762432	0.790733	0.785908
0	C	0.729155	0.81311	0.756782
0	C	0.718913	0.79664	0.751123
0	O	0.63072	0.790925	0.82076
0	O	0.754802	0.822504	0.842287
0	H	0.669636	0.762327	0.797353
0	H	0.7108	0.767844	0.759942
0	C	0.741642	0.755599	0.7763
0	C	0.73454	0.748556	0.854726
0	C	0.69471	0.857685	0.762188
0	C	0.743776	0.812981	0.771786
0	C	0.7206	0.779968	0.762086
0	H	0.666468	0.858829	0.841623
0	H	0.784905	0.745403	0.748382
0	O	0.470508	0.656181	0.933203
0	C	0.480971	0.640998	0.929638
0	O	0.507303	0.637671	0.974412
0	O	0.467781	0.648571	0.977699
0	C	0.464231	0.695504	0.97706
0	H	0.596903	0.701663	0.925153
0	C	0.547921	0.658424	0.980031
0	H	0.542448	0.664775	0.966773
0	C	0.47049	0.730793	0.981085
0	H	0.484597	0.72759	0.972935
0	C	0.50615	0.736896	0.911001
0	C	0.465688	0.723104	0.910221
0	C	0.499043	0.720968	0.899694
0	C	0.480187	0.712703	0.901012
0	H	0.476418	0.701314	0.891597
0	C	0.4914	0.636151	0.909747
0	O	0.598749	0.67487	0.971428
0	H	0.605447	0.678809	0.957629
0	C	0.513511	0.647063	0.98902
0	C	0.579549	0.671175	0.969547
0	C	0.566978	0.662166	0.985092
0	O	0.475989	0.686805	0.987566
0	C	0.471925	0.738454	0.922234
0	O	0.573101	0.675515	0.952214
0	O	0.482277	0.627847	0.942383
0	O	0.597044	0.639891	0.887181
0	O	0.594626	0.708945	0.936856
0	H	0.586213	0.718942	0.931435
0	O	0.521946	0.700043	0.88254
0	C	0.50306	0.64902	0.89723
0	H	0.50146	0.664942	0.899436
0	H	0.590463	0.669895	0.903336
0	O	0.60394	0.66362	0.910422
0	C	0.60755	0.645889	0.901493
0	C	0.513946	0.641724	0.880195
0	O	0.565267	0.695755	0.8849
0	C	0.510752	0.715062	0.883041
0	C	0.458245	0.715367	0.984658
0	C	0.535661	0.648051	0.993152
0	O	0.597004	0.627506	0.985439
0	H	0.578646	0.698053	0.879347
0	H	0.563114	0.7085	0.891407
0	O	0.455507	0.687494	0.962815
0	H	0.519976	0.743119	0.909762
0	C	0.511926	0.620479	0.87639
0	Fe	0.480434	0.62435	0.972295
0	H	0.597992	0.625049	0.971418
0	O	0.53973	0.666275	0.870123
0	C	0.622237	0.632797	0.909153
0	H	0.62116	0.643504	0.937519
0	Fe	0.62228	0.72179	0.939117
0	O	0.623053	0.715983	0.969217
0	C	0.650485	0.666326	0.898827
0	O	0.773315	0.6819	0.890186
0	C	0.687063	0.655002	0.912617
0	O	0.778117	0.641419	0.932115
0	H	0.698001	0.700274	0.948937
0	C	0.656849	0.673	0.91698
0	O	0.65155	0.728956	0.946093
0	C	0.727842	0.722845	0.885276
0	O	0.731483	0.69029	0.893941
0	C	0.673604	0.6653	0.925246
0	H	0.710117	0.654958	0.985403
0	O	0.764675	0.663244	0.964528
0	C	0.650845	0.692792	0.921668
0	Fe	0.73208	0.688697	0.940296
0	Fe	0.778104	0.670305	0.938993
0	O	0.662155	0.706607	0.915878
0	O	0.645281	0.738451	0.939364
0	O	0.731641	0.711055	0.919504
0	C	0.74239	0.649027	0.988201
0	O	0.722197	0.651983	0.906407
0	H	0.712393	0.718502	0.952758
0	O	0.710537	0.674815	0.925957
0	C	0.746841	0.661004	0.970393
0	O	0.63608	0.628947	0.968892
0	C	0.628938	0.633418	0.928328
0	C	0.769419	0.731102	0.954484
0	C	0.680828	0.649043	0.894069
0	O	0.750279	0.702438	0.956676
0	H	0.755077	0.727115	0.981279
0	O	0.71017	0.704235	0.955761
0	O	0.635064	0.695832	0.930285
0	Fe	0.659691	0.737175	0.914836
0	H	0.657163	0.715501	0.952193
0	C	0.708045	0.660119	0.915851
0	C	0.73005	0.70744	0.900821
0	C	0.766238	0.709663	0.950266
0	Fe	0.749147	0.666025	0.899943
0	O	0.732453	0.667543	0.961197
0	O	0.752692	0.674014	0.92641
0	C	0.776262	0.634066	0.915214
0	C	0.762322	0.737458	0.972111
0	H	0.679312	0.671334	0.939305
0	O	0.647267	0.735344	0.980838
0	O	0.765141	0.641409	0.901802
0	F	0.67768	0.739072	0.895264
0	C	0.633275	0.723064	0.983585
0	H	0.637764	0.673349	0.892403
0	C	0.662203	0.653771	0.887419
0	O	0.779876	0.699618	0.942719
0	H	0.690787	0.641702	0.883816
0	O	0.669799	0.733303	0.885616
0	H	0.771214	0.634283	0.991375
0	C	0.733408	0.742323	0.889081
0	C	0.722449	0.648359	0.993656
0	H	0.630214	0.721058	0.897923
0	O	0.634141	0.735034	0.899627
0	H	0.659646	0.726812	0.876728
0	H	0.779732	0.740207	0.925984
0	H	0.623279	0.741524	0.905841
0	O	0.742687	0.658488	0.871397
0	H	0.785744	0.623625	0.878203
0	O	0.688777	0.622276	0.991959
0	H	0.736464	0.64534	0.871578
0	C	0.503775	0.865878	0.882963
0	H	0.460502	0.745485	0.930925
0	O	0.607704	0.747259	0.946979
0	C	0.491704	0.747037	0.921096
0	C	0.464448	0.749262	0.98478
0	O	0.514473	0.823533	0.927697
0	O	0.483666	0.815174	0.923269
0	C	0.498989	0.823941	0.917651
0	Fe	0.475791	0.798888	0.948089
0	O	0.465866	0.778606	0.969073
0	C	0.474818	0.765626	0.978166
0	O	0.492582	0.768067	0.983105
0	O	0.537906	0.776446	0.958325
0	O	0.530095	0.784449	0.989227
0	C	0.540202	0.77453	0.976888
0	O	0.480835	0.775302	0.933876
0	Fe	0.524742	0.799734	0.945853
0	O	0.501576	0.798979	0.960403
0	Fe	0.502919	0.795527	0.987593
0	O	0.470019	0.823986	0.964282
0	C	0.468111	0.820661	0.982168
0	O	0.513684	0.82325	0.990837
0	O	0.550074	0.802033	0.929495
0	O	0.512111	0.778068	0.926483
0	O	0.537659	0.818075	0.968904
0	C	0.495941	0.767866	0.92786
0	C	0.531397	0.825354	0.985822
0	H	0.553288	0.788241	0.926938
0	H	0.560678	0.808154	0.936899
0	C	0.574152	0.763401	0.969422
0	C	0.559365	0.765812	0.983071
0	H	0.569826	0.764865	0.954308
0	C	0.488326	0.829663	0.880718
0	C	0.497974	0.835042	0.898243
0	H	0.483334	0.814728	0.88031
0	C	0.593561	0.761097	0.975841
0	C	0.505064	0.853839	0.898297
0	C	0.610001	0.757755	0.962024
0	H	0.515184	0.858645	0.909976
0	O	0.475353	0.80558	0.990194
0	H	0.683285	0.752141	0.942655
0	H	0.642258	0.758619	0.873932
0	H	0.719339	0.828824	0.871192
0	H	0.689522	0.758683	0.963641
0	H	0.77794	0.7845	0.969379
0	H	0.735944	0.746861	0.903481
0	C	0.775763	0.745027	0.940424
0	H	0.762229	0.866155	0.958795
0	O	0.682539	0.748991	0.956707
0	C	0.776307	0.765578	0.944898
0	C	0.699334	0.85195	0.87747
0	O	0.626406	0.76448	0.966755
0	C	0.746431	0.83082	0.898257
0	H	0.730459	0.860036	0.925014
0	H	0.648748	0.817322	0.93867
0	O	0.658097	0.766686	0.911178
0	C	0.715848	0.839511	0.881222
0	C	0.659957	0.802429	0.893737
0	H	0.663827	0.789023	0.886291
0	C	0.751708	0.771638	0.877238
0	C	0.646753	0.855271	0.923635
0	C	0.72849	0.842085	0.897952
0	C	0.647615	0.83603	0.91259
0	O	0.655198	0.779274	0.941241
0	C	0.656599	0.781178	0.92308
0	O	0.759594	0.832281	0.911013
0	O	0.747991	0.819075	0.884241
0	O	0.762646	0.76986	0.892599
0	C	0.650995	0.816522	0.882703
0	C	0.645592	0.834164	0.892346
0	H	0.641864	0.847633	0.884531
0	C	0.65721	0.801138	0.91364
0	O	0.662293	0.775374	0.980501
0	C	0.650917	0.818346	0.9229
0	C	0.723983	0.858912	0.910753
0	Fe	0.653179	0.756154	0.960383
0	C	0.770214	0.75498	0.979181
0	O	0.655436	0.858256	0.940385
0	C	0.774267	0.77035	0.964698
0	C	0.738121	0.75442	0.873793
0	O	0.775651	0.798311	0.930136
0	O	0.635658	0.867949	0.916177
0	H	0.667482	0.766465	0.991263
0	O	0.775786	0.868765	0.925273
0	O	0.680563	0.866925	0.974472
0	C	0.697661	0.869315	0.887484
0	O	0.78355	0.803504	0.88869
0	H	0.668915	0.86514	0.982498
0	H	0.650403	0.780186	0.98625
0	C	0.782176	0.78079	0.930581
0	H	0.613742	0.690748	0.997353
0	H	0.613806	0.648332	0.118578
0	O	0.501651	0.654649	0.00176796
0	H	0.534729	0.631445	0.0193477
0	Fe	0.471826	0.661016	0.00266661
0	H	0.463832	0.67569	0.0376126
0	C	0.574384	0.65606	0.00298783
0	H	0.58889	0.660724	0.00753818
0	O	0.525856	0.682757	0.0763405
0	O	0.533251	0.654754	0.0917423
0	C	0.509014	0.673629	0.105836
0	C	0.52374	0.67104	0.0905701
0	O	0.594565	0.644533	0.085509
0	C	0.582728	0.634857	0.09532
0	O	0.56572	0.631983	0.0894541
0	Fe	0.551686	0.693616	0.0656866
0	O	0.538569	0.721061	0.0666046
0	O	0.592625	0.686202	0.0883039
0	O	0.56207	0.696836	0.0925886
0	O	0.525379	0.651547	0.0483219
0	O	0.541268	0.691926	0.0371927
0	H	0.527985	0.685829	0.0398868
0	Fe	0.547093	0.642637	0.0687514
0	O	0.576854	0.708474	0.0576656
0	Fe	0.590465	0.66511	0.0655655
0	O	0.561967	0.667161	0.0661644
0	C	0.571145	0.639897	0.0345078
0	O	0.587054	0.647158	0.0413299
0	O	0.592169	0.68447	0.0439001
0	C	0.592913	0.701541	0.050114
0	O	0.476039	0.674624	0.0298778
0	C	0.544097	0.640006	0.0102069
0	C	0.5632	0.644812	0.015665
0	H	0.515269	0.6413	0.0472871
0	H	0.549699	0.682393	0.0310195
0	O	0.4683	0.636624	0.0193372
0	H	0.485787	0.665439	0.0368377
0	C	0.579473	0.696387	0.0974256
0	H	0.601653	0.739341	0.0555831
0	H	0.536498	0.725341	0.0528323
0	H	0.52509	0.718043	0.0706854
0	H	0.508448	0.703906	0.106027
0	C	0.611942	0.709472	0.0540415
0	O	0.560989	0.629313	0.0462448
0	H	0.505676	0.642216	0.108512
0	C	0.50503	0.691717	0.113804
0	C	0.59044	0.627438	0.113793
0	C	0.502037	0.656516	0.114734
0	C	0.583648	0.710063	0.113648
0	C	0.613905	0.72884	0.0586542
0	F	0.616801	0.661654	0.0635131
0	H	0.554063	0.720265	0.116078
0	H	0.521267	0.620178	0.0810578
0	H	0.613569	0.702429	0.116905
0	C	0.75413	0.623685	0.0660425
0	C	0.755715	0.635431	0.996074
0	C	0.785089	0.744064	0.109555
0	O	0.633031	0.625043	0.0458387
0	O	0.688182	0.627844	0.0243448
0	Fe	0.6594	0.627174	0.032208
0	O	0.687723	0.724195	0.110794
0	H	0.718137	0.637743	0.106768
0	C	0.767908	0.723782	0.0794805
0	H	0.629501	0.684393	0.0482948
0	O	0.627277	0.65178	0.00316649
0	C	0.716977	0.663491	0.0763456
0	C	0.627999	0.696759	0.0579711
0	H	0.760456	0.716566	0.0677605
0	H	0.742854	0.649915	0.0514144
0	O	0.727082	0.711689	0.099794
0	O	0.671092	0.692056	0.0901178
0	H	0.708451	0.664212	0.0278346
0	C	0.65602	0.714816	0.0259572
0	O	0.717675	0.737456	0.0422494
0	O	0.727252	0.702458	0.0400921
0	O	0.70056	0.710963	0.0708245
0	C	0.644178	0.702945	0.0704272
0	H	0.666311	0.685429	0.0273403
0	O	0.714134	0.670412	0.0597984
0	C	0.726996	0.644348	0.0769846
0	H	0.704222	0.680805	0.0120214
0	Fe	0.700709	0.693547	0.0480156
0	Fe	0.699328	0.700545	0.0975805
0	O	0.672937	0.686578	0.0582592
0	H	0.643818	0.741448	0.0177576
0	C	0.696361	0.628242	0.00773368
0	C	0.640463	0.68434	0.012708
0	C	0.726044	0.632629	0.0940583
0	C	0.734631	0.727487	0.0927209
0	O	0.654103	0.654097	0.0221666
0	C	0.629686	0.716254	0.00379206
0	C	0.673644	0.723682	0.0357029
0	C	0.717185	0.634371	0.00707222
0	H	0.73441	0.693148	0.0324547
0	Fe	0.700385	0.740293	0.0666005
0	C	0.626355	0.696162	0.00408222
0	C	0.756736	0.730341	0.0948418
0	C	0.663125	0.691633	0.073511
0	C	0.631128	0.735819	0.0678482
0	O	0.67431	0.736264	0.0496354
0	C	0.741173	0.639382	0.0628717
0	F	0.668842	0.63625	0.0558368
0	H	0.655051	0.726545	0.0863493
0	C	0.641115	0.725446	0.0176814
0	O	0.710972	0.672417	0.0915503
0	O	0.699385	0.675167	0.0243822
0	C	0.643661	0.722065	0.0764393
0	C	0.640469	0.662157	0.0124722
0	O	0.689038	0.715252	0.0309996
0	C	0.655415	0.694151	0.0224701
0	O	0.776054	0.634268	0.0407015
0	C	0.681889	0.741449	0.109304
0	H	0.728867	0.744026	0.0466046
0	O	0.725903	0.739817	0.0824293
0	Fe	0.625221	0.621612	0.996187
0	C	0.765377	0.740772	0.11008
0	C	0.749388	0.62085	0.00876047
0	C	0.729865	0.621157	0.0152307
0	C	0.771822	0.621176	0.0537648
0	O	0.45379	0.857301	0.0615035
0	H	0.517099	0.746593	0.104936
0	Fe	0.463612	0.866773	0.086896
0	C	0.597517	0.760868	0.995478
0	C	0.457287	0.833219	0.995355
0	O	0.528964	0.862901	0.0636607
0	C	0.557584	0.83188	0.115774
0	H	0.526369	0.767462	0.108401
0	H	0.569187	0.747464	0.0674083
0	C	0.462501	0.833688	0.0145007
0	C	0.459613	0.843902	0.0498075
0	O	0.458967	0.839828	0.101462
0	H	0.611892	0.758359	0.000828851
0	H	0.569463	0.814062	0.000614842
0	H	0.557414	0.756375	0.0833742
0	C	0.543475	0.833906	0.00179102
0	C	0.5636	0.767027	0.00299795
0	O	0.503374	0.79226	0.0172638
0	H	0.490033	0.78705	0.0201502
0	H	0.510661	0.780322	0.022565
0	O	0.57047	0.756279	0.0782955
0	Fe	0.571705	0.785109	0.0692242
0	O	0.571378	0.812613	0.0570589
0	C	0.580165	0.817502	0.0414742
0	O	0.572557	0.77439	0.0412099
0	F	0.544517	0.786261	0.0672621
0	O	0.509049	0.84385	0.0475417
0	Fe	0.496088	0.832843	0.0719193
0	O	0.470651	0.830245	0.055922
0	F	0.503498	0.807747	0.0620365
0	C	0.557843	0.845545	0.0379855
0	C	0.568131	0.830776	0.0278246
0	C	0.562236	0.826426	0.0085362
0	H	0.552576	0.774428	0.0126467
0	C	0.52448	0.853885	0.0478075
0	C	0.539127	0.850271	0.0325321
0	H	0.561692	0.847132	0.0534324
0	C	0.532464	0.845149	0.0147732
0	C	0.582859	0.765366	0.00933226
0	C	0.586795	0.768805	0.0301365
0	O	0.483973	0.819619	0.0958466
0	O	0.56847	0.796752	0.0967039
0	O	0.59936	0.785054	0.073793
0	O	0.597361	0.810938	0.0385037
0	O	0.521131	0.832389	0.0879574
0	C	0.526364	0.841831	0.103406
0	H	0.475175	0.825349	0.0197502
0	H	0.564059	0.840218	0.103197
0	H	0.517118	0.848014	0.0114956
0	O	0.597976	0.804439	0.110658
0	C	0.469055	0.824737	0.105275
0	Fe	0.611209	0.780955	0.100216
0	C	0.579405	0.804319	0.109979
0	O	0.604406	0.768649	0.0363004
0	O	0.588287	0.763655	0.108325
0	O	0.514561	0.75954	0.110607
0	O	0.523307	0.860246	0.105047
0	O	0.489988	0.858937	0.0812905
0	Fe	0.616251	0.790157	0.0525004
0	C	0.537592	0.832149	0.119051
0	H	0.711777	0.745079	0.0311267
0	O	0.635041	0.769022	0.0641805
0	H	0.743102	0.840325	0.116295
0	C	0.783142	0.75268	0.996409
0	C	0.78057	0.78799	0.0581602
0	O	0.76133	0.863948	0.997484
0	O	0.629814	0.813146	0.0669692
0	C	0.654996	0.843592	0.0792251
0	H	0.779762	0.772486	0.0619939
0	H	0.664416	0.811295	0.116649
0	C	0.675791	0.840568	0.115193
0	C	0.664833	0.859644	0.0874377
0	H	0.64679	0.84539	0.0655321
0	C	0.639774	0.810321	0.0827465
0	O	0.635813	0.796129	0.0943694
0	C	0.768215	0.801388	0.0667329
0	C	0.779224	0.826398	0.0436611
0	C	0.777072	0.845947	0.0343328
0	O	0.685036	0.750004	0.0930585
0	H	0.685713	0.774696	0.063243
0	C	0.630763	0.755042	0.0746035
0	C	0.677513	0.857153	0.103258
0	O	0.623397	0.757041	0.0914823
0	O	0.635451	0.793768	0.0303328
0	C	0.665289	0.823982	0.107937
0	H	0.707289	0.775343	0.0717218
0	C	0.768987	0.800049	0.0876852
0	H	0.755661	0.830233	0.0637448
0	C	0.766966	0.819922	0.0585677
0	O	0.779647	0.786703	0.0951476
0	O	0.762462	0.856543	0.0387053
0	C	0.654286	0.825632	0.0897709
0	O	0.763952	0.81495	0.0974368
0	H	0.629156	0.79447	0.0175117
0	H	0.642227	0.780707	0.0296707
0	O	0.699239	0.769684	0.061448
0	O	0.717934	0.752238	0.117014
0	O	0.489573	0.88767	0.23419
0	O	0.529383	0.901843	0.192808
0	C	0.511588	0.898586	0.185658
0	O	0.554332	0.898929	0.229343
0	O	0.602415	0.95033	0.201371
0	C	0.601633	0.966431	0.191531
0	C	0.583249	0.976956	0.19035
0	C	0.573203	0.976355	0.172553
0	H	0.581156	0.971611	0.159762
0	H	0.577114	0.930594	0.235696
0	C	0.498297	0.894563	0.152088
0	C	0.504162	0.907623	0.167165
0	C	0.545154	0.985565	0.15225
0	C	0.555126	0.984418	0.17104
0	C	0.575303	0.988018	0.206619
0	C	0.487616	0.900677	0.135851
0	O	0.57001	0.888802	0.190242
0	O	0.50154	0.885074	0.192675
0	C	0.50218	0.927457	0.163296
0	H	0.508592	0.93785	0.172602
0	O	0.552661	0.977961	0.137057
0	O	0.503317	0.967976	0.148494
0	H	0.564935	0.888654	0.176215
0	C	0.494575	0.954742	0.138988
0	Fe	0.546845	0.879243	0.207139
0	C	0.492759	0.934254	0.145726
0	C	0.484191	0.920217	0.133258
0	H	0.502125	0.879258	0.15193
0	H	0.460819	0.905327	0.239143
0	H	0.573037	0.902362	0.19333
0	C	0.545274	0.992391	0.187516
0	O	0.613488	0.93687	0.237288
0	O	0.487275	0.958866	0.12221
0	O	0.615712	0.971526	0.1806
0	H	0.584575	0.992074	0.218653
0	H	0.475307	0.924396	0.12088
0	H	0.465528	0.880883	0.202831
0	F	0.622054	0.916153	0.203792
0	H	0.722684	0.94841	0.21063
0	C	0.660308	0.940669	0.145435
0	O	0.658014	0.970497	0.184224
0	H	0.69349	0.952379	0.180391
0	Fe	0.636953	0.986712	0.196178
0	C	0.654341	0.932844	0.24034
0	C	0.721036	0.95801	0.152896
0	H	0.767114	0.903928	0.186169
0	C	0.663948	0.898564	0.23158
0	O	0.664394	0.987529	0.23911
0	O	0.736918	0.945525	0.209307
0	C	0.655514	0.95327	0.179402
0	H	0.696437	0.888877	0.150502
0	H	0.644452	0.937639	0.143768
0	C	0.673062	0.939751	0.129675
0	O	0.641409	0.943317	0.185707
0	O	0.757591	0.982367	0.171081
0	O	0.726489	0.955091	0.170537
0	H	0.69102	0.898705	0.170942
0	Fe	0.74846	0.964508	0.189542
0	H	0.656104	0.885311	0.175134
0	O	0.764603	0.94375	0.149191
0	H	0.741948	0.950034	0.222424
0	Fe	0.627787	0.941893	0.211554
0	O	0.731445	0.967673	0.140833
0	O	0.698496	0.888045	0.165081
0	H	0.659591	0.901132	0.21645
0	C	0.701143	0.949664	0.149548
0	O	0.729149	0.983861	0.198212
0	O	0.767968	0.973633	0.210013
0	O	0.634627	0.968618	0.217309
0	C	0.693153	0.94491	0.131993
0	O	0.7671	0.943434	0.181057
0	C	0.688673	0.948356	0.165307
0	C	0.669656	0.878915	0.234991
0	Fe	0.761051	0.974074	0.14422
0	C	0.76946	0.935408	0.164806
0	O	0.653539	0.935475	0.222143
0	C	0.667952	0.94548	0.16364
0	H	0.66435	0.88295	0.152669
0	F	0.761533	0.910058	0.240082
0	H	0.698258	0.987789	0.211903
0	C	0.780592	0.904866	0.177504
0	O	0.678335	0.874216	0.201608
0	O	0.661288	0.876515	0.164819
0	C	0.782052	0.985146	0.211293
0	C	0.78161	0.918566	0.163112
0	Fe	0.786083	0.898082	0.243549
0	O	0.773498	0.871119	0.242322
0	H	0.703021	0.945572	0.119873
0	C	0.555549	0.995568	0.205614
0	Fe	0.50635	0.996161	0.136276
0	O	0.480431	0.995759	0.122042
0	H	0.530356	0.997117	0.185835
0	O	0.530342	0.995914	0.152094
0	H	0.45816	0.0741756	0.228577
0	O	0.514178	0.0888758	0.225013
0	O	0.496324	0.0626368	0.229548
0	C	0.49843	0.0807443	0.230278
0	Fe	0.542689	0.0817324	0.227686
0	O	0.522444	0.0553869	0.193058
0	O	0.546565	0.0757209	0.198289
0	C	0.536286	0.0652492	0.187297
0	Fe	0.515104	0.0425729	0.219797
0	O	0.492339	0.0305287	0.203906
0	O	0.572241	0.0787539	0.231305
0	O	0.536491	0.0549751	0.234169
0	O	0.533194	0.0199494	0.211908
0	C	0.547528	0.0110074	0.218477
0	O	0.554679	0.0146839	0.235852
0	C	0.583448	0.0641614	0.233677
0	H	0.482623	0.0411449	0.200199
0	H	0.486159	0.0218479	0.213607
0	F	0.493635	0.00633131	0.156918
0	O	0.606011	0.0892262	0.169364
0	C	0.556827	0.0733908	0.159167
0	C	0.52841	0.0537081	0.153703
0	C	0.562586	0.0697022	0.139676
0	C	0.535184	0.0483483	0.13486
0	C	0.540274	0.0642069	0.166798
0	H	0.51523	0.0460888	0.159779
0	H	0.565975	0.082384	0.16891
0	C	0.482447	0.0935709	0.235911
0	C	0.46285	0.0887596	0.234731
0	C	0.582062	0.0772241	0.135124
0	C	0.60342	0.0649666	0.226009
0	H	0.599223	0.0880605	0.205531
0	C	0.605574	0.0737222	0.207702
0	O	0.581783	0.0954074	0.13337
0	O	0.597809	0.0669694	0.135288
0	Fe	0.600853	0.112024	0.147954
0	C	0.553424	0.0550614	0.128334
0	C	0.614109	0.0484525	0.231229
0	O	0.549135	0.110417	0.221111
0	O	0.577951	0.0481614	0.241401
0	O	0.512154	0.0245385	0.128502
0	C	0.529497	0.0298084	0.12749
0	C	0.618574	0.0757388	0.173561
0	C	0.616992	0.0650297	0.193093
0	H	0.464854	0.109974	0.178899
0	H	0.544547	0.116984	0.233011
0	O	0.506176	0.0256537	0.242526
0	H	0.540373	0.112962	0.210724
0	O	0.616758	0.00391864	0.205335
0	H	0.453327	0.0242737	0.12458
0	O	0.54398	0.0177652	0.122792
0	H	0.576956	0.112137	0.174447
0	O	0.495626	0.11901	0.198008
0	H	0.640642	0.995793	0.16113
0	O	0.756493	0.0631486	0.12087
0	O	0.621534	0.101638	0.13142
0	O	0.65823	0.114477	0.127355
0	H	0.654724	0.00766372	0.173428
0	C	0.621189	0.03684	0.2161
0	C	0.621172	0.0143542	0.219556
0	O	0.759685	0.0012346	0.135628
0	H	0.687507	0.104452	0.160655
0	C	0.731668	0.00193216	0.202771
0	C	0.705971	0.041379	0.230223
0	H	0.734423	0.038341	0.218716
0	O	0.6573	0.00270967	0.211468
0	O	0.626802	0.00603131	0.236214
0	C	0.667084	0.000822568	0.227018
0	C	0.716632	0.0127333	0.213088
0	O	0.701322	0.0755719	0.234774
0	C	0.685285	0.0120159	0.228521
0	O	0.681138	0.110297	0.22374
0	H	0.722958	0.0430587	0.143109
0	C	0.700073	0.00310279	0.217787
0	C	0.623819	0.0459595	0.197024
0	C	0.720259	0.0312665	0.220103
0	O	0.746621	0.0115977	0.198891
0	O	0.745707	0.0198424	0.157655
0	Fe	0.75905	0.10669	0.130717
0	Fe	0.628074	0.0742119	0.130969
0	O	0.631643	0.0710261	0.160886
0	O	0.774688	0.0855083	0.14534
0	O	0.722242	0.111042	0.218204
0	C	0.746892	0.014404	0.140365
0	C	0.688053	0.0319071	0.234801
0	C	0.724677	0.0398559	0.128564
0	H	0.761616	0.0881174	0.219954
0	O	0.640126	0.00494398	0.172771
0	O	0.737213	0.0879777	0.126025
0	C	0.688734	0.0993632	0.129022
0	Fe	0.765849	0.00872177	0.178664
0	O	0.747631	0.0893134	0.224112
0	F	0.773976	0.0339847	0.184771
0	H	0.630129	0.0378084	0.18503
0	C	0.694089	0.109163	0.146871
0	C	0.667637	0.0978387	0.12708
0	O	0.658715	0.0812335	0.126562
0	O	0.634244	0.0444852	0.128627
0	C	0.738156	0.0253123	0.124796
0	H	0.669641	0.106973	0.232017
0	H	0.738677	0.104359	0.161917
0	H	0.719159	0.101627	0.208469
0	Fe	0.704542	0.105011	0.242262
0	C	0.711624	0.0600443	0.238315
0	H	0.677495	0.0404554	0.241664
0	O	0.747921	0.11497	0.157664
0	H	0.638869	0.0405283	0.1416
0	O	0.784728	0.998937	0.199502
0	H	0.645849	0.0423639	0.121166
0	C	0.739426	0.0696403	0.121723
0	O	0.457674	0.888333	0.325303
0	H	0.457152	0.956325	0.323995
0	C	0.475192	0.869755	0.368572
0	C	0.514032	0.943021	0.368128
0	O	0.602841	0.87962	0.366504
0	O	0.545491	0.897044	0.368272
0	C	0.553354	0.899092	0.247687
0	C	0.547961	0.947324	0.364699
0	C	0.604599	0.948733	0.249012
0	O	0.609779	0.96663	0.250359
0	C	0.575851	0.928845	0.250518
0	C	0.491699	0.885681	0.252113
0	O	0.559922	0.950209	0.350606
0	Fe	0.588966	0.942007	0.351686
0	O	0.58149	0.915935	0.35927
0	Fe	0.590247	0.893138	0.343662
0	O	0.589571	0.935471	0.322006
0	O	0.5792	0.904986	0.319264
0	C	0.583011	0.921371	0.312283
0	F	0.595656	0.968074	0.345081
0	C	0.564363	0.913193	0.280242
0	C	0.578065	0.925438	0.291283
0	C	0.588833	0.940377	0.26069
0	C	0.589694	0.939173	0.281313
0	C	0.564118	0.914439	0.259711
0	H	0.601251	0.947901	0.287694
0	H	0.557382	0.900972	0.288262
0	C	0.476071	0.894759	0.263745
0	C	0.461326	0.90413	0.294875
0	C	0.476549	0.894491	0.284352
0	H	0.488282	0.887488	0.292312
0	O	0.54478	0.885153	0.257425
0	C	0.547491	0.882453	0.356824
0	O	0.563456	0.878045	0.347558
0	C	0.461249	0.905097	0.253993
0	O	0.475206	0.932289	0.353214
0	C	0.458876	0.903667	0.316004
0	O	0.617764	0.935179	0.353272
0	C	0.528899	0.956511	0.365231
0	O	0.617903	0.905235	0.339197
0	O	0.503874	0.874752	0.260308
0	C	0.512136	0.873988	0.364804
0	H	0.516901	0.927051	0.365333
0	H	0.453005	0.96592	0.34462
0	H	0.538708	0.985929	0.366977
0	C	0.526024	0.976113	0.368341
0	O	0.599863	0.869697	0.32629
0	C	0.656351	0.929839	0.367015
0	Fe	0.637109	0.976936	0.244516
0	O	0.784852	0.970505	0.349767
0	C	0.785371	0.94135	0.329628
0	C	0.66253	0.912899	0.247023
0	H	0.740837	0.874263	0.259646
0	O	0.682194	0.871345	0.299409
0	C	0.678226	0.897188	0.356203
0	O	0.63971	0.986329	0.272915
0	O	0.746295	0.882144	0.269598
0	O	0.707424	0.881022	0.281857
0	C	0.74419	0.905355	0.319556
0	O	0.747683	0.893518	0.333316
0	H	0.673392	0.917454	0.278634
0	H	0.760739	0.935025	0.348314
0	C	0.692608	0.881887	0.34876
0	C	0.756331	0.92361	0.318123
0	C	0.689026	0.880005	0.284639
0	C	0.763418	0.92479	0.299634
0	H	0.755127	0.92094	0.286479
0	C	0.669803	0.907262	0.266775
0	C	0.766393	0.933346	0.333424
0	C	0.676703	0.886965	0.268725
0	H	0.654191	0.892215	0.335506
0	O	0.649061	0.946964	0.252557
0	C	0.626287	0.919286	0.348244
0	O	0.711096	0.884662	0.350331
0	O	0.732939	0.900812	0.30499
0	C	0.64788	0.917263	0.353173
0	C	0.659311	0.900834	0.347663
0	C	0.674592	0.873069	0.253804
0	H	0.739642	0.894326	0.266498
0	Fe	0.732818	0.87273	0.294828
0	C	0.783268	0.926089	0.297366
0	O	0.780953	0.902245	0.273369
0	H	0.626098	0.987006	0.276897
0	O	0.74736	0.872614	0.369374
0	H	0.761281	0.871792	0.366709
0	F	0.45391	0.0342067	0.368911
0	C	0.488218	0.109798	0.246725
0	H	0.611395	0.0410029	0.244763
0	H	0.454484	0.0354606	0.312418
0	O	0.488014	0.0138454	0.367517
0	H	0.534437	0.119054	0.27878
0	H	0.503266	0.11338	0.249685
0	O	0.505826	0.0527731	0.367399
0	C	0.455052	0.11855	0.251647
0	Fe	0.479103	0.0426524	0.366814
0	O	0.467469	0.0705782	0.364964
0	C	0.461331	0.099397	0.346185
0	O	0.594181	0.103248	0.289074
0	O	0.538337	0.0889114	0.256403
0	Fe	0.551714	0.0401171	0.253223
0	O	0.507954	0.0277673	0.332798
0	O	0.479209	0.0416392	0.338041
0	C	0.498119	0.0219767	0.294158
0	C	0.465413	0.0309223	0.301708
0	C	0.485181	0.0276416	0.307506
0	C	0.490898	0.0323549	0.327453
0	O	0.526127	0.0321067	0.266761
0	C	0.509165	0.0270085	0.260237
0	C	0.474113	0.0283705	0.26803
0	C	0.492944	0.0239134	0.27369
0	O	0.549086	0.0223105	0.339951
0	O	0.552333	0.0632088	0.271774
0	C	0.537017	0.110537	0.291068
0	C	0.544181	0.0917454	0.290046
0	C	0.543644	0.0809713	0.307512
0	C	0.545736	0.0809011	0.271377
0	O	0.531625	0.0598898	0.337498
0	C	0.534364	0.0773888	0.341347
0	C	0.533415	0.109545	0.326044
0	C	0.538503	0.0900344	0.325112
0	F	0.566338	0.0258938	0.271826
0	H	0.545114	0.0654135	0.306082
0	H	0.513133	0.0207737	0.29837
0	H	0.541477	0.0105597	0.335395
0	H	0.550438	0.0291728	0.328399
0	H	0.470846	0.0314347	0.252931
0	C	0.474231	0.0865941	0.358125
0	Fe	0.526616	0.0378734	0.354316
0	O	0.532088	0.0843954	0.35842
0	C	0.460115	0.0316833	0.281943
0	H	0.60598	0.072384	0.29229
0	O	0.492107	0.0919367	0.361859
0	H	0.528018	0.116133	0.339396
0	C	0.611972	0.0994018	0.292763
0	O	0.617478	0.0819254	0.29965
0	C	0.466125	0.118286	0.341701
0	H	0.556034	0.0539087	0.366041
0	O	0.684986	0.100383	0.263405
0	O	0.772309	0.0104805	0.352327
0	Fe	0.72704	0.113966	0.285399
0	O	0.726056	0.0991699	0.260517
0	C	0.700673	0.0174004	0.328179
0	H	0.649798	0.0924374	0.291465
0	H	0.766912	0.0555484	0.314912
0	H	0.644693	0.000660961	0.272049
0	C	0.718873	0.0279141	0.325116
0	O	0.727403	0.0603392	0.24775
0	C	0.73652	0.0722573	0.297192
0	C	0.753666	0.0483572	0.31904
0	C	0.769614	0.1118	0.273338
0	C	0.772813	0.0234542	0.338358
0	Fe	0.747013	0.0817973	0.253764
0	C	0.736344	0.0551375	0.310448
0	H	0.672074	0.013889	0.324344
0	C	0.718277	0.0451403	0.314518
0	H	0.705811	0.0493052	0.306966
0	C	0.736409	0.0218416	0.333844
0	H	0.73703	0.00855897	0.343094
0	O	0.701735	0.00182819	0.337962
0	C	0.682123	0.112377	0.277453
0	O	0.757504	0.109995	0.287101
0	F	0.76627	0.0637977	0.246656
0	O	0.76842	0.102612	0.258121
0	C	0.646911	0.107741	0.287615
0	O	0.748101	0.0717345	0.282426
0	C	0.627232	0.113321	0.286559
0	C	0.753994	0.0311796	0.330367
0	O	0.723964	0.0861121	0.299314
0	O	0.683305	0.023864	0.319475
0	O	0.47384	0.926214	0.384386
0	O	0.564487	0.947403	0.467272
0	O	0.571579	0.977421	0.477907
0	C	0.573135	0.964016	0.465158
0	O	0.53134	0.968671	0.470702
0	O	0.559145	0.907752	0.473431
0	H	0.550546	0.909205	0.461753
0	H	0.571422	0.911642	0.467018
0	O	0.580969	0.887384	0.388954
0	O	0.54949	0.908162	0.409328
0	O	0.587284	0.926935	0.399633
0	C	0.590363	0.944777	0.397113
0	H	0.536803	0.914348	0.407985
0	H	0.555296	0.915956	0.419474
0	C	0.585187	0.952539	0.432453
0	C	0.585369	0.966736	0.447962
0	C	0.596674	0.983427	0.445387
0	C	0.59413	0.956803	0.414396
0	H	0.575398	0.940274	0.433669
0	H	0.526154	0.97965	0.462655
0	H	0.526501	0.889697	0.466946
0	Fe	0.566728	0.912097	0.382703
0	C	0.603796	0.974974	0.411487
0	F	0.460978	0.902181	0.414587
0	O	0.591412	0.9525	0.379995
0	O	0.519876	0.87738	0.467131
0	O	0.551961	0.936654	0.379071
0	O	0.474792	0.884063	0.380127
0	H	0.50604	0.880626	0.471533
0	C	0.60463	0.988443	0.4265
0	O	0.524147	0.933358	0.479986
0	C	0.595276	0.877318	0.382612
0	H	0.608625	0.980353	0.39739
0	H	0.523863	0.93061	0.465635
0	Fe	0.553534	0.932203	0.490524
0	Fe	0.546966	0.981374	0.492765
0	H	0.582781	0.898869	0.49176
0	H	0.518329	0.921103	0.484825
0	H	0.597661	0.994282	0.457496
0	H	0.477728	0.977338	0.37395
0	C	0.492126	0.970631	0.37299
0	H	0.510737	0.887522	0.373558
0	O	0.557265	0.870714	0.489269
0	C	0.495921	0.950125	0.371993
0	O	0.455906	0.963487	0.489365
0	C	0.507648	0.983739	0.370841
0	Fe	0.45348	0.90376	0.38864
0	H	0.542604	0.870323	0.425173
0	O	0.536105	0.869655	0.437873
0	C	0.480455	0.935268	0.369742
0	O	0.700446	0.989083	0.375296
0	C	0.674039	0.92497	0.376145
0	O	0.718559	0.950879	0.418192
0	O	0.67943	0.962279	0.430872
0	Fe	0.709892	0.969421	0.397414
0	O	0.705881	0.948804	0.458074
0	H	0.709466	0.878185	0.417241
0	O	0.738374	0.947383	0.45597
0	O	0.755185	0.947575	0.397547
0	C	0.722708	0.95013	0.465474
0	C	0.732671	0.906876	0.430327
0	C	0.724696	0.957009	0.486013
0	C	0.682605	0.980569	0.428257
0	C	0.682495	0.935416	0.392259
0	F	0.777005	0.985346	0.384935
0	H	0.754158	0.969579	0.480241
0	O	0.689511	0.926197	0.406734
0	O	0.749104	0.977279	0.4286
0	H	0.758922	0.934233	0.393866
0	O	0.684552	0.954086	0.391248
0	Fe	0.698335	0.938087	0.431868
0	O	0.746317	0.918203	0.425689
0	H	0.66369	0.925334	0.440897
0	H	0.768187	0.953854	0.397697
0	F	0.772183	0.944477	0.432465
0	H	0.76299	0.888921	0.448143
0	C	0.752478	0.878586	0.441995
0	C	0.736457	0.885783	0.430919
0	O	0.676546	0.92374	0.446963
0	O	0.715398	0.913166	0.435006
0	O	0.696398	0.986357	0.417787
0	H	0.661676	0.976855	0.459181
0	Fe	0.746218	0.947261	0.426252
0	H	0.6798	0.909609	0.447042
0	O	0.724383	0.952809	0.375619
0	O	0.733598	0.988611	0.401841
0	H	0.697996	0.904869	0.379447
0	C	0.743967	0.990811	0.416914
0	H	0.68593	0.987278	0.372228
0	H	0.694291	0.952003	0.493484
0	C	0.661883	0.992018	0.454248
0	C	0.721829	0.872683	0.423979
0	H	0.721798	0.939251	0.380452
0	C	0.741903	0.967642	0.49082
0	O	0.654743	0.985498	0.493777
0	H	0.649089	0.943051	0.371415
0	H	0.745054	0.885914	0.373202
0	C	0.684276	0.908473	0.371303
0	O	0.546493	0.0470901	0.374052
0	C	0.461249	0.0415074	0.43291
0	H	0.463843	0.0271244	0.426466
0	O	0.518685	0.104025	0.391915
0	O	0.49063	0.0726955	0.400316
0	O	0.532264	0.0650495	0.399172
0	O	0.479114	0.0434491	0.395771
0	C	0.480688	0.058249	0.406791
0	H	0.524783	0.0577539	0.40912
0	O	0.544219	0.00727251	0.476529
0	H	0.548571	0.017861	0.485954
0	C	0.471109	0.0584109	0.42554
0	H	0.536499	0.0757167	0.406583
0	Fe	0.512159	0.0776681	0.379575
0	H	0.530318	0.00880486	0.475601
0	C	0.465934	0.0760404	0.433963
0	H	0.470457	0.0889499	0.426227
0	H	0.532743	0.105277	0.391319
0	H	0.514731	0.103287	0.405772
0	O	0.61083	0.0218191	0.436745
0	C	0.612896	0.0084129	0.423667
0	O	0.519425	0.0153592	0.371756
0	O	0.484625	0.0513252	0.494415
0	C	0.504576	0.0054589	0.370278
0	C	0.455127	0.0775021	0.451111
0	C	0.66952	0.995509	0.436247
0	H	0.70191	0.0530571	0.378052
0	H	0.6788	0.053858	0.378851
0	O	0.621735	0.0141282	0.405997
0	H	0.753914	0.115574	0.382609
0	H	0.625531	0.0291381	0.408689
0	H	0.638288	0.084944	0.469704
0	O	0.691158	0.0619589	0.378403
0	O	0.708367	0.0952407	0.467602
0	C	0.765046	0.0322093	0.446588
0	C	0.77444	0.0336147	0.46489
0	C	0.653517	0.00569478	0.465933
0	C	0.695764	0.0850775	0.475898
0	O	0.72818	0.0754337	0.436767
0	C	0.762221	0.0142043	0.438164
0	O	0.767908	0.045498	0.477788
0	C	0.660453	0.029809	0.439446
0	O	0.715472	0.0636358	0.40971
0	O	0.656494	0.0644976	0.442205
0	C	0.664556	0.0506502	0.433012
0	C	0.749022	0.0113348	0.422765
0	H	0.673432	0.0169595	0.41302
0	C	0.651661	0.0247507	0.45825
0	H	0.759894	0.0632967	0.443571
0	Fe	0.664084	0.0936917	0.445401
0	C	0.728208	0.0630246	0.42329
0	O	0.700814	0.099354	0.389095
0	C	0.647192	0.000320838	0.485744
0	H	0.645298	0.0359836	0.46761
0	O	0.689011	0.0906041	0.429629
0	O	0.676513	0.0537644	0.419153
0	H	0.644595	0.106626	0.474
0	Fe	0.688567	0.0768027	0.404639
0	H	0.660989	0.0943261	0.384985
0	H	0.769555	0.00116773	0.444948
0	Fe	0.713695	0.102103	0.439233
0	C	0.669387	0.0147281	0.428986
0	H	0.656563	0.0741945	0.390662
0	C	0.741919	0.0459876	0.424238
0	O	0.661456	0.0859119	0.396434
0	O	0.63958	0.0984495	0.463034
0	O	0.646706	0.103626	0.423015
0	H	0.726096	0.0239388	0.404573
0	C	0.73772	0.0268222	0.415516
0	C	0.75798	0.0489513	0.437669
0	O	0.678852	0.0830975	0.469022
0	C	0.71546	0.110635	0.393505
0	F	0.736826	0.113591	0.447353
0	O	0.778908	0.0852484	0.486315
0	O	0.721896	0.112778	0.411112
0	H	0.700099	0.00193809	0.382049
0	H	0.63602	0.0936375	0.421847
0	H	0.77027	0.0835317	0.475177
0	O	0.568142	0.87223	0.60418
0	H	0.517298	0.890182	0.501291
0	H	0.612932	0.965205	0.51405
0	H	0.527746	0.877615	0.598282
0	O	0.494939	0.894684	0.604677
0	O	0.580731	0.9311	0.501544
0	O	0.544653	0.912404	0.513307
0	O	0.531653	0.931629	0.534533
0	C	0.53639	0.914697	0.529832
0	Fe	0.55088	0.953993	0.53337
0	O	0.571585	0.973894	0.532505
0	O	0.572656	0.931223	0.532508
0	O	0.550278	0.955698	0.505957
0	O	0.527238	0.974531	0.536807
0	C	0.516964	0.984	0.523972
0	C	0.582434	0.924023	0.518048
0	F	0.551795	0.951319	0.559956
0	H	0.565301	0.98345	0.566419
0	C	0.592119	0.904243	0.520241
0	C	0.588004	0.892683	0.504139
0	C	0.516106	0.90055	0.555967
0	C	0.533527	0.899135	0.545267
0	C	0.549091	0.88741	0.554515
0	C	0.513741	0.893053	0.574466
0	H	0.505688	0.910396	0.552017
0	H	0.562668	0.885674	0.546877
0	C	0.482634	0.981159	0.516005
0	O	0.52171	0.985992	0.506271
0	H	0.48725	0.968356	0.509018
0	C	0.600484	0.89517	0.53612
0	O	0.601984	0.895413	0.604336
0	C	0.529496	0.884378	0.584247
0	O	0.480323	0.904718	0.576396
0	C	0.495288	0.897071	0.584927
0	C	0.547079	0.880001	0.574289
0	H	0.601136	0.902175	0.551002
0	C	0.568552	0.991767	0.52948
0	O	0.519695	0.877312	0.508144
0	C	0.466519	0.990652	0.508391
0	C	0.496412	0.990922	0.527813
0	C	0.603259	0.874419	0.536126
0	C	0.587435	0.872737	0.505234
0	F	0.509393	0.993144	0.608737
0	H	0.47915	0.893639	0.60807
0	H	0.464074	0.870567	0.563855
0	H	0.506163	0.87286	0.509022
0	H	0.453427	0.872199	0.54365
0	C	0.778303	0.871266	0.543721
0	C	0.781312	0.878367	0.615894
0	O	0.681799	0.951569	0.618002
0	H	0.783131	0.920358	0.549457
0	O	0.621206	0.873452	0.565161
0	O	0.619547	0.977437	0.511391
0	C	0.61976	0.900777	0.601623
0	O	0.661646	0.869947	0.58012
0	C	0.774698	0.891785	0.5488
0	H	0.654934	0.944478	0.495152
0	H	0.621939	0.923028	0.568538
0	O	0.780626	0.951424	0.582075
0	H	0.647887	0.935446	0.514979
0	C	0.708109	0.958279	0.498127
0	H	0.705091	0.878968	0.614441
0	C	0.720258	0.880425	0.610324
0	O	0.757827	0.897764	0.553397
0	O	0.717763	0.951483	0.595922
0	O	0.637483	0.95892	0.544028
0	O	0.67449	0.964519	0.522447
0	C	0.639032	0.948823	0.579075
0	C	0.742093	0.978927	0.507927
0	C	0.64901	0.954914	0.595395
0	C	0.64533	0.960762	0.560819
0	H	0.729807	0.959456	0.596123
0	C	0.70788	0.970363	0.514032
0	H	0.708797	0.961028	0.589985
0	C	0.689783	0.975375	0.523967
0	C	0.625856	0.921767	0.599657
0	H	0.656825	0.968646	0.59583
0	O	0.63378	0.888758	0.602444
0	C	0.725557	0.979197	0.519753
0	C	0.649227	0.944081	0.612534
0	Fe	0.646657	0.972156	0.518319
0	O	0.66134	0.971113	0.56204
0	O	0.643841	0.945768	0.504998
0	C	0.628165	0.930985	0.580763
0	C	0.760651	0.880521	0.611479
0	C	0.636778	0.929019	0.615758
0	C	0.759078	0.992092	0.510255
0	H	0.725729	0.988433	0.532449
0	O	0.689428	0.990265	0.535334
0	H	0.68359	0.992075	0.584422
0	H	0.710386	0.984607	0.614416
0	O	0.456738	0.116653	0.514318
0	C	0.46825	0.104828	0.616305
0	H	0.474208	0.0867724	0.502098
0	H	0.509959	0.0297046	0.498048
0	C	0.49949	0.0554595	0.504197
0	C	0.506034	0.114027	0.526907
0	O	0.560457	0.997134	0.513948
0	H	0.610079	0.996464	0.539909
0	O	0.513605	0.0415987	0.507051
0	H	0.520755	0.0271863	0.596048
0	O	0.519463	0.0312934	0.60883
0	C	0.501088	0.075262	0.51394
0	C	0.487709	0.0899833	0.509761
0	H	0.527929	0.0692647	0.528659
0	O	0.546937	0.998242	0.605476
0	H	0.60055	0.0063863	0.519807
0	C	0.518998	0.0989577	0.533724
0	C	0.561485	0.00794623	0.599539
0	F	0.482505	0.0165726	0.584126
0	O	0.539221	0.0949783	0.605137
0	Fe	0.550897	0.0810424	0.582223
0	O	0.559138	0.06987	0.55567
0	C	0.574603	0.0591368	0.557162
0	O	0.590435	0.0665021	0.565772
0	O	0.53089	0.0926855	0.564528
0	O	0.57248	0.065841	0.600458
0	C	0.532738	0.102692	0.549213
0	C	0.497484	0.0908479	0.604308
0	H	0.506163	0.0788642	0.599021
0	C	0.572154	0.0258394	0.541069
0	C	0.564872	0.0308297	0.574698
0	C	0.570629	0.00555605	0.544229
0	C	0.564726	0.0118435	0.578734
0	C	0.566802	0.998743	0.563627
0	C	0.570434	0.0382001	0.557032
0	H	0.560108	0.0396149	0.585786
0	H	0.576194	0.0315035	0.527141
0	C	0.491554	0.00951447	0.536464
0	H	0.502646	0.0177854	0.544727
0	C	0.517008	0.0802386	0.52559
0	C	0.489738	0.109235	0.516642
0	O	0.593295	0.0892378	0.603802
0	F	0.533174	0.0610515	0.585957
0	C	0.47448	0.019469	0.530209
0	C	0.589896	0.0711751	0.605089
0	O	0.56928	0.10197	0.577965
0	C	0.477897	0.0889792	0.607524
0	O	0.473564	0.0547779	0.596478
0	O	0.473177	0.0402501	0.557269
0	C	0.466021	0.0719107	0.60197
0	H	0.600489	0.0368391	0.58382
0	Fe	0.595682	0.095682	0.576317
0	C	0.46511	0.0358214	0.541598
0	Fe	0.459301	0.0306136	0.580604
0	O	0.596947	0.102941	0.548841
0	C	0.607907	0.0583696	0.605032
0	C	0.611553	0.0433678	0.591489
0	C	0.462735	0.00897772	0.515558
0	O	0.608476	0.0085119	0.530924
0	C	0.506946	0.109541	0.606237
0	C	0.528543	0.110078	0.601141
0	O	0.573027	0.0168877	0.611188
0	F	0.619199	0.0419181	0.517202
0	O	0.544441	0.117013	0.547902
0	H	0.771831	0.0945687	0.495753
0	H	0.711646	0.0351405	0.533927
0	O	0.785003	0.0526984	0.544406
0	C	0.673894	0.0373623	0.526834
0	O	0.679518	0.069166	0.610054
0	O	0.675392	0.0284934	0.543339
0	C	0.660694	0.0741012	0.615206
0	H	0.631093	0.0988854	0.579943
0	H	0.730954	0.080111	0.494717
0	F	0.783941	0.0346911	0.594725
0	H	0.690833	0.0805321	0.612097
0	Fe	0.635057	0.0213043	0.524182
0	C	0.643614	0.0619261	0.609541
0	O	0.769186	0.996541	0.496052
0	O	0.646326	0.0108407	0.570461
0	O	0.65962	0.0350347	0.516197
0	O	0.756806	0.0638257	0.513814
0	H	0.661461	0.0425581	0.592271
0	O	0.762778	0.998895	0.527281
0	F	0.763421	0.0213195	0.559284
0	C	0.631233	0.0380047	0.58573
0	C	0.707952	0.0484788	0.525424
0	C	0.718629	0.0720646	0.501266
0	Fe	0.782328	0.0575524	0.499785
0	C	0.688722	0.0513763	0.520503
0	H	0.680879	0.0145434	0.582369
0	C	0.624164	0.0665646	0.614785
0	Fe	0.667691	0.999998	0.552126
0	Fe	0.774498	0.0249574	0.535409
0	C	0.636383	0.0268317	0.567974
0	O	0.635413	0.0116245	0.494698
0	O	0.686169	0.00308927	0.575967
0	O	0.634919	0.0341874	0.550863
0	O	0.786009	0.0316686	0.510482
0	H	0.624672	0.0877998	0.560937
0	C	0.64684	0.0462377	0.596572
0	H	0.66997	0.0649684	0.499018
0	C	0.684528	0.0645583	0.504639
0	O	0.747744	0.0363736	0.527669
0	O	0.64978	0.998117	0.531648
0	C	0.743724	0.0525901	0.519559
0	C	0.723117	0.0578673	0.515656
0	C	0.699587	0.074551	0.494778
0	O	0.624103	0.0877187	0.574882
0	O	0.56205	0.918437	0.724526
0	O	0.502821	0.906087	0.713814
0	O	0.476706	0.91525	0.730878
0	C	0.560387	0.931782	0.737254
0	C	0.495215	0.914656	0.728763
0	C	0.485228	0.985609	0.672878
0	C	0.474623	0.974859	0.687576
0	C	0.472251	0.984026	0.705929
0	Fe	0.585112	0.90188	0.716482
0	O	0.60299	0.924185	0.723425
0	O	0.609057	0.887547	0.708138
0	O	0.603375	0.966438	0.712981
0	C	0.590106	0.970402	0.725113
0	O	0.579861	0.909216	0.687694
0	O	0.582463	0.940085	0.691052
0	O	0.510219	0.900986	0.674549
0	O	0.494505	0.922265	0.654816
0	C	0.528509	0.943322	0.647162
0	C	0.563321	0.947022	0.655442
0	C	0.528391	0.925502	0.657697
0	C	0.562517	0.929136	0.665454
0	C	0.545849	0.91751	0.66381
0	C	0.546762	0.953694	0.646411
0	C	0.575483	0.925611	0.682185
0	C	0.509891	0.915242	0.662366
0	H	0.576115	0.957428	0.658322
0	H	0.545146	0.902204	0.670264
0	H	0.531287	0.908784	0.730256
0	H	0.490312	0.979426	0.658912
0	F	0.585047	0.881387	0.639696
0	O	0.470882	0.905731	0.688636
0	C	0.470471	0.953508	0.686912
0	O	0.471991	0.943826	0.703088
0	O	0.566014	0.877296	0.710556
0	Fe	0.492785	0.887313	0.693564
0	C	0.546601	0.974778	0.640662
0	O	0.562677	0.983572	0.637924
0	Fe	0.610665	0.938937	0.701279
0	H	0.514645	0.951258	0.642779
0	O	0.529333	0.982761	0.639651
0	Fe	0.466405	0.91543	0.662405
0	O	0.465206	0.945096	0.670766
0	O	0.467077	0.88683	0.651384
0	O	0.616966	0.911628	0.68771
0	H	0.574134	0.87096	0.700513
0	C	0.527642	0.921232	0.738352
0	C	0.578104	0.988704	0.722803
0	O	0.586645	0.95807	0.738603
0	O	0.475606	0.87251	0.713444
0	C	0.475103	0.870856	0.656474
0	H	0.465126	0.975661	0.718234
0	O	0.460156	0.924834	0.634291
0	H	0.590022	0.994345	0.695684
0	H	0.600429	0.989758	0.646389
0	C	0.507766	0.924638	0.742238
0	C	0.541002	0.93514	0.742837
0	O	0.58477	0.890171	0.74378
0	Fe	0.456465	0.919392	0.710664
0	F	0.512587	0.871151	0.700692
0	H	0.457981	0.939031	0.634458
0	F	0.619567	0.951341	0.678977
0	C	0.622035	0.897468	0.699145
0	H	0.761833	0.950814	0.733281
0	O	0.710369	0.887285	0.668633
0	O	0.739426	0.951386	0.631084
0	C	0.722099	0.91116	0.632127
0	O	0.627608	0.956201	0.738474
0	C	0.703646	0.968144	0.694569
0	H	0.644858	0.972211	0.665019
0	O	0.63886	0.941957	0.71211
0	C	0.676371	0.962681	0.717267
0	C	0.691493	0.974899	0.711258
0	H	0.656166	0.883209	0.645241
0	Fe	0.680042	0.959833	0.662177
0	O	0.685907	0.900311	0.648832
0	C	0.771281	0.957916	0.644064
0	O	0.655781	0.973814	0.673941
0	H	0.654554	0.900449	0.679157
0	C	0.691754	0.886262	0.659738
0	C	0.641467	0.8982	0.70759
0	O	0.714604	0.95355	0.695705
0	O	0.703549	0.949014	0.652822
0	F	0.739959	0.924702	0.688499
0	C	0.749653	0.9559	0.646388
0	C	0.683828	0.923348	0.688312
0	O	0.663347	0.943683	0.643621
0	C	0.656793	0.901882	0.694558
0	O	0.742239	0.956082	0.663203
0	O	0.698735	0.975144	0.67807
0	H	0.688721	0.919913	0.726291
0	O	0.674746	0.938652	0.683006
0	C	0.640605	0.955217	0.724462
0	O	0.680888	0.98339	0.641639
0	Fe	0.721667	0.937187	0.671224
0	C	0.657526	0.969827	0.721006
0	O	0.729605	0.917324	0.648171
0	H	0.678873	0.947591	0.719162
0	O	0.772993	0.955785	0.725869
0	H	0.630582	0.899493	0.736753
0	C	0.660327	0.908676	0.734845
0	C	0.64251	0.900778	0.727823
0	C	0.675507	0.913473	0.721375
0	O	0.700765	0.918894	0.681856
0	C	0.673651	0.910193	0.701689
0	Fe	0.781623	0.982123	0.738454
0	C	0.665775	0.946367	0.625631
0	H	0.776308	0.928622	0.654606
0	C	0.778667	0.97355	0.632478
0	H	0.639055	0.919654	0.628185
0	H	0.768751	0.98568	0.628891
0	H	0.658518	0.987172	0.672741
0	H	0.667624	0.985428	0.637645
0	C	0.654407	0.990188	0.717473
0	H	0.784194	0.947498	0.728442
0	H	0.709897	0.878926	0.682874
0	C	0.73097	0.895616	0.62093
0	H	0.759298	0.907294	0.625836
0	H	0.72481	0.905634	0.743862
0	O	0.709348	0.920932	0.62362
0	Fe	0.710225	0.950557	0.626147
0	O	0.712212	0.979502	0.627512
0	O	0.768182	0.994155	0.7157
0	H	0.770613	0.899013	0.733868
0	H	0.724566	0.927306	0.742854
0	O	0.715418	0.916309	0.743822
0	C	0.78344	0.941354	0.648004
0	O	0.743798	0.872979	0.733925
0	C	0.661427	0.870231	0.652089
0	H	0.749361	0.870678	0.720616
0	C	0.75087	0.896305	0.619762
0	H	0.607055	0.00985652	0.651689
0	C	0.565838	0.995136	0.737649
0	C	0.580468	3.10475e-05	0.706441
0	O	0.466174	0.115068	0.676711
0	O	0.502845	0.0119183	0.644862
0	C	0.479506	0.00241794	0.709946
0	C	0.49117	0.00529646	0.676984
0	O	0.600543	0.00339901	0.641358
0	O	0.514837	0.0287798	0.670116
0	C	0.488335	0.0127921	0.695529
0	C	0.503478	0.0161012	0.662973
0	O	0.481247	0.0264889	0.735934
0	C	0.478741	0.00898524	0.731188
0	Fe	0.536218	0.0445119	0.656887
0	O	0.544067	0.0216854	0.64098
0	O	0.527547	0.0696047	0.673548
0	C	0.554902	0.0216525	0.717222
0	O	0.553332	0.036332	0.679499
0	O	0.570744	0.0103302	0.669962
0	C	0.564285	0.0218362	0.682732
0	C	0.567312	0.0158471	0.70276
0	Fe	0.571657	0.0133655	0.641002
0	O	0.557313	0.0614274	0.646393
0	O	0.582293	0.0404665	0.646096
0	C	0.575517	0.0574784	0.648512
0	H	0.544542	0.0331682	0.714411
0	H	0.494629	0.0262131	0.700002
0	H	0.512895	0.0717558	0.670761
0	H	0.53456	0.0812933	0.668684
0	Fe	0.543555	0.100811	0.729882
0	F	0.524734	0.0869332	0.716394
0	O	0.563545	0.0775496	0.731389
0	O	0.584096	0.0959188	0.715588
0	C	0.581025	0.080905	0.725285
0	C	0.597034	0.068859	0.732186
0	C	0.584967	0.0929999	0.650005
0	C	0.590674	0.0735269	0.652556
0	C	0.609623	0.0699737	0.660492
0	H	0.614219	0.0548221	0.662071
0	C	0.554419	0.0119676	0.734809
0	O	0.516012	0.0540667	0.635629
0	H	0.505045	0.0590655	0.643751
0	H	0.571355	0.0973209	0.643919
0	C	0.598333	0.108678	0.652936
0	O	0.549315	0.109642	0.701702
0	Fe	0.525243	0.00725171	0.625009
0	H	0.520906	0.065779	0.629188
0	F	0.502719	0.0591036	0.737164
0	C	0.61618	0.104435	0.662325
0	C	0.615599	0.0765295	0.728858
0	O	0.522417	0.0231052	0.73999
0	H	0.617707	0.0889351	0.719707
0	H	0.466593	0.114612	0.691158
0	H	0.478893	0.110537	0.671655
0	O	0.563934	0.116935	0.742665
0	C	0.595093	0.0510844	0.74263
0	H	0.581026	0.0439202	0.743387
0	H	0.613523	0.118057	0.701219
0	H	0.453727	0.103651	0.621692
0	C	0.688845	0.9947	0.71201
0	H	0.683994	0.995396	0.649625
0	H	0.622827	0.0792956	0.622846
0	C	0.726075	0.112037	0.655312
0	C	0.622887	0.0851214	0.664289
0	H	0.639528	0.995501	0.716789
0	O	0.657123	0.0905255	0.623853
0	H	0.729994	0.107621	0.669496
0	C	0.694231	0.0976009	0.662625
0	C	0.743365	0.021662	0.689961
0	H	0.700799	0.00387066	0.705862
0	O	0.65299	0.0953572	0.677639
0	H	0.745173	0.0572287	0.655703
0	Fe	0.673493	0.09683	0.700589
0	O	0.707308	0.0530201	0.671456
0	O	0.710413	0.0429296	0.701893
0	C	0.737697	0.0377442	0.679073
0	C	0.771391	0.0106692	0.708116
0	F	0.673428	0.0458496	0.64993
0	Fe	0.688355	0.0551788	0.720759
0	O	0.648425	0.0637603	0.6731
0	O	0.667684	0.0364031	0.716565
0	O	0.779632	0.0249181	0.717229
0	O	0.651948	0.0904656	0.719998
0	C	0.707125	0.108354	0.64867
0	O	0.673203	0.028911	0.685866
0	C	0.762136	0.0159895	0.689515
0	C	0.769828	0.0381584	0.662893
0	O	0.667216	0.0669985	0.737633
0	O	0.691935	0.102029	0.724309
0	O	0.693575	0.103455	0.680477
0	C	0.632094	0.067935	0.736564
0	C	0.670106	0.00288409	0.71068
0	C	0.651752	0.0761323	0.732375
0	H	0.734061	0.0154978	0.700609
0	C	0.717453	0.0458257	0.68443
0	C	0.774872	0.0226784	0.675047
0	C	0.669499	0.0235475	0.703654
0	C	0.642166	0.0813	0.672235
0	O	0.680006	0.0697856	0.698582
0	C	0.750753	0.045583	0.664509
0	Fe	0.677366	0.0568336	0.673269
0	O	0.709047	0.0748533	0.729837
0	O	0.684898	0.0820249	0.656943
0	C	0.706002	0.0933949	0.73227
0	H	0.763593	0.0632411	0.731735
0	H	0.625252	0.116679	0.6659
0	C	0.70042	0.116252	0.630892
0	H	0.685303	0.11328	0.626894
0	O	0.756135	0.0534876	0.740336
0	H	0.745368	0.0477536	0.731755
0	O	0.699106	0.0378533	0.743122
0	H	0.708436	0.0298504	0.736219
0	H	0.545596	0.870217	0.751181
0	H	0.49018	0.872017	0.856016
0	O	0.545769	0.917053	0.865094
0	O	0.574561	0.941459	0.746118
0	Fe	0.605157	0.936243	0.748577
0	C	0.464213	0.985749	0.843636
0	C	0.501798	0.938915	0.754853
0	H	0.487215	0.94123	0.758241
0	O	0.522974	0.983351	0.774075
0	O	0.492034	0.973482	0.776433
0	C	0.535441	0.950448	0.754724
0	C	0.515958	0.952389	0.761371
0	C	0.509992	0.97	0.772706
0	O	0.60424	0.950057	0.776164
0	O	0.584822	0.917488	0.762165
0	C	0.578068	0.900167	0.758414
0	H	0.546939	0.960457	0.759635
0	O	0.54907	0.923817	0.823537
0	O	0.537358	0.894544	0.832408
0	C	0.541508	0.907247	0.819212
0	O	0.578192	0.905673	0.840345
0	O	0.557756	0.963232	0.830181
0	C	0.588429	0.919674	0.845707
0	C	0.544202	0.879022	0.764145
0	C	0.558582	0.901387	0.788048
0	C	0.526142	0.879369	0.774515
0	C	0.540419	0.901392	0.798551
0	C	0.524633	0.890838	0.791319
0	C	0.56043	0.892975	0.769759
0	H	0.571444	0.908303	0.795889
0	H	0.511407	0.89225	0.799461
0	C	0.482407	0.986087	0.834045
0	C	0.609138	0.917141	0.846335
0	H	0.590392	0.950166	0.778941
0	H	0.567294	0.97026	0.838838
0	H	0.544892	0.970851	0.830067
0	C	0.49655	0.973433	0.840489
0	H	0.509678	0.97155	0.832353
0	Fe	0.551614	0.940258	0.84907
0	O	0.52296	0.944136	0.847503
0	Fe	0.55624	0.892172	0.85674
0	O	0.580788	0.935199	0.852276
0	C	0.494525	0.961622	0.856615
0	C	0.510769	0.947691	0.861163
0	H	0.615321	0.914383	0.815598
0	C	0.461755	0.975183	0.8607
0	H	0.566179	0.986558	0.751667
0	H	0.609117	0.963452	0.77488
0	C	0.617571	0.917612	0.864607
0	H	0.456841	0.970441	0.77189
0	C	0.47685	0.963007	0.867945
0	C	0.634763	0.909213	0.868114
0	H	0.78119	0.910723	0.797195
0	O	0.770875	0.900518	0.748316
0	C	0.620922	0.910995	0.830678
0	O	0.74626	0.880599	0.776191
0	H	0.715183	0.949334	0.862566
0	O	0.780389	0.912221	0.782558
0	C	0.781507	0.958312	0.7905
0	C	0.691299	0.965164	0.847995
0	F	0.640734	0.948337	0.794979
0	C	0.688423	0.962885	0.772107
0	O	0.757019	0.983673	0.75582
0	O	0.726822	0.931789	0.780382
0	H	0.751277	0.930812	0.831474
0	O	0.696764	0.885394	0.805862
0	O	0.727603	0.915786	0.808812
0	H	0.670799	0.986643	0.836206
0	O	0.694082	0.947958	0.762266
0	O	0.711004	0.900468	0.84361
0	C	0.763245	0.949163	0.785957
0	Fe	0.664262	0.93642	0.794936
0	O	0.710407	0.891669	0.777241
0	C	0.753419	0.937625	0.800106
0	H	0.756495	0.952614	0.771566
0	C	0.707395	0.963008	0.861481
0	C	0.734535	0.928323	0.796545
0	C	0.654933	0.906109	0.820399
0	O	0.677167	0.960793	0.78595
0	O	0.678376	0.904959	0.76197
0	O	0.671872	0.948719	0.823176
0	Fe	0.701898	0.91931	0.770769
0	C	0.759886	0.937463	0.81918
0	C	0.639334	0.903872	0.834137
0	C	0.700619	0.880696	0.788834
0	O	0.771918	0.941658	0.85854
0	H	0.657882	0.892709	0.856488
0	C	0.664256	0.913761	0.755276
0	C	0.687306	0.949764	0.8335
0	C	0.780561	0.951011	0.844707
0	O	0.651367	0.911167	0.803328
0	H	0.721355	0.96949	0.754274
0	O	0.689406	0.922728	0.794924
0	C	0.644647	0.899605	0.853218
0	H	0.702842	0.906891	0.85355
0	Fe	0.699947	0.911781	0.817674
0	O	0.701191	0.938141	0.829879
0	C	0.777207	0.946799	0.823986
0	O	0.657943	0.928728	0.764776
0	H	0.706329	0.886596	0.843603
0	C	0.715538	0.981599	0.761049
0	O	0.671811	0.908916	0.827409
0	C	0.69638	0.982281	0.768349
0	C	0.682973	0.983524	0.845906
0	H	0.749437	0.873019	0.787767
0	H	0.748573	0.89446	0.778381
0	Fe	0.765772	0.871054	0.755123
0	O	0.458107	0.0230586	0.771948
0	C	0.591718	0.0955783	0.863833
0	H	0.577227	0.101236	0.864102
0	O	0.591102	0.117004	0.776001
0	C	0.611077	0.0674947	0.866235
0	H	0.478217	0.104477	0.861749
0	O	0.476568	0.996163	0.744699
0	H	0.55587	0.996337	0.792505
0	C	0.487197	0.996248	0.815341
0	O	0.505687	0.997459	0.810522
0	O	0.606077	0.113629	0.746688
0	H	0.554312	0.0116031	0.807788
0	O	0.547416	0.999512	0.803936
0	O	0.455912	0.105178	0.779077
0	O	0.473417	0.000342849	0.803619
0	Fe	0.476067	0.999271	0.774011
0	O	0.562285	0.0611017	0.860079
0	O	0.508261	0.0385965	0.858932
0	C	0.611582	0.0408609	0.748712
0	Fe	0.522239	0.00874996	0.788342
0	O	0.541177	0.0172422	0.766108
0	C	0.538642	0.0173702	0.747909
0	O	0.522044	0.0355681	0.803745
0	Fe	0.501238	0.038378	0.754926
0	O	0.498374	0.015934	0.773607
0	O	0.47931	0.0536435	0.768185
0	O	0.522828	0.0510013	0.771292
0	H	0.516398	0.0620501	0.779611
0	O	0.528448	0.0927079	0.754552
0	O	0.551609	0.0960326	0.775084
0	C	0.533686	0.0948681	0.771614
0	O	0.527137	0.0713394	0.840489
0	C	0.521234	0.0893837	0.840007
0	O	0.543175	0.030248	0.840783
0	H	0.557648	0.032736	0.840244
0	H	0.543612	0.0173583	0.847815
0	C	0.476024	0.0414151	0.844798
0	C	0.470259	0.0474025	0.825983
0	H	0.479815	0.0585587	0.818826
0	C	0.525875	0.0936775	0.805536
0	C	0.513206	0.0947255	0.820676
0	C	0.519435	0.0968822	0.786997
0	H	0.541555	0.091628	0.806674
0	H	0.509109	0.0383436	0.808718
0	H	0.531952	0.057906	0.761941
0	O	0.593611	0.0189108	0.768223
0	C	0.46285	0.0325475	0.857979
0	C	0.493478	0.0996796	0.818131
0	H	0.481256	0.0512425	0.782057
0	O	0.515488	0.0985156	0.855032
0	C	0.493646	0.0490296	0.853816
0	H	0.485241	0.0667286	0.766694
0	C	0.609291	0.0219382	0.759219
0	C	0.499004	0.0998434	0.783062
0	C	0.463694	0.102962	0.79629
0	C	0.485961	0.102269	0.799186
0	H	0.484282	0.101234	0.830613
0	Fe	0.534797	0.0503963	0.861767
0	O	0.49285	0.0671689	0.857204
0	H	0.492819	0.0992059	0.76822
0	C	0.607727	0.106625	0.856831
0	C	0.593044	0.0761139	0.866771
0	C	0.606459	0.115281	0.76526
0	O	0.452964	0.0971627	0.811141
0	O	0.764255	0.0974023	0.799277
0	C	0.688636	0.999288	0.77613
0	C	0.756527	0.0433708	0.815942
0	C	0.746178	0.998348	0.754629
0	O	0.750371	0.0133277	0.744891
0	C	0.626146	0.118229	0.774481
0	H	0.778824	0.0712732	0.783591
0	H	0.707627	0.0469094	0.751529
0	O	0.726905	0.0711214	0.826686
0	C	0.784503	0.0239662	0.8269
0	H	0.754951	0.0392536	0.865085
0	O	0.768326	0.0322797	0.775915
0	C	0.780557	0.0306682	0.790139
0	F	0.717133	0.0851245	0.792379
0	C	0.634258	0.102927	0.784634
0	H	0.632266	0.0284582	0.823277
0	C	0.718681	0.10479	0.745522
0	C	0.694504	0.0342748	0.790962
0	H	0.735463	0.0786067	0.753701
0	O	0.638684	0.0302931	0.810438
0	C	0.689587	0.998861	0.857069
0	C	0.773999	0.0337031	0.811881
0	C	0.744269	0.103573	0.770788
0	H	0.673988	0.997926	0.782121
0	C	0.720045	0.0141205	0.772225
0	C	0.654045	0.10262	0.790241
0	C	0.626673	0.0978225	0.856457
0	O	0.685318	0.0325746	0.863557
0	C	0.732698	0.0939231	0.756599
0	O	0.65216	0.0714148	0.808944
0	C	0.627674	0.0774146	0.859752
0	Fe	0.662556	0.0459514	0.821569
0	C	0.760126	0.0377402	0.850341
0	C	0.695406	0.103617	0.842201
0	O	0.706922	0.0476621	0.795505
0	H	0.728096	0.0272783	0.771709
0	Fe	0.701359	0.0738361	0.810901
0	C	0.7499	0.0465446	0.835377
0	H	0.62166	0.999135	0.772778
0	C	0.727176	0.998048	0.763277
0	O	0.694544	0.100003	0.824417
0	C	0.782717	0.0101084	0.861449
0	C	0.700578	0.0155134	0.779219
0	H	0.643231	0.0174253	0.806025
0	C	0.775708	0.0243782	0.846115
0	O	0.645585	0.0531701	0.844698
0	C	0.66183	0.0842002	0.798476
0	H	0.639751	0.105957	0.853398
0	H	0.642445	0.0413087	0.752173
0	Fe	0.691457	0.0621515	0.858026
0	C	0.759064	0.0918265	0.782227
0	O	0.677381	0.0352597	0.796867
0	O	0.624652	0.00887775	0.761289
0	O	0.719948	0.0520733	0.852163
0	Fe	0.774162	0.0296535	0.746136
0	O	0.67857	0.0790854	0.792656
0	O	0.699295	0.0904978	0.854847
0	C	0.682492	0.0188393	0.851783
0	O	0.674086	0.0213302	0.835508
0	O	0.662139	0.0718527	0.863644
0	O	0.685794	0.0596008	0.830313
0	H	0.750563	0.0522149	0.803929
0	C	0.646197	0.0665556	0.856439
0	C	0.73194	0.0577931	0.839225
0	H	0.624765	0.0914427	0.78944
0	O	0.767428	0.0755192	0.773584
0	C	0.630606	0.0494152	0.745158
0	C	0.706516	0.996911	0.86917
0	O	0.514294	0.925921	0.982366
0	Fe	0.540728	0.937028	0.972851
0	O	0.524651	0.957262	0.956727
0	C	0.5275	0.975289	0.954905
0	O	0.525463	0.986252	0.969504
0	O	0.56455	0.949815	0.962317
0	C	0.598549	0.953233	0.944702
0	C	0.58839	0.969513	0.950601
0	C	0.572101	0.966585	0.963582
0	C	0.594555	0.98805	0.945979
0	O	0.564917	0.980438	0.974703
0	O	0.541165	0.920055	0.948541
0	C	0.598069	0.896133	0.985239
0	H	0.592532	0.898125	0.970825
0	H	0.59068	0.939205	0.945158
0	H	0.529826	0.911334	0.947614
0	H	0.552329	0.910015	0.948952
0	O	0.549876	0.940056	0.89771
0	C	0.551475	0.956703	0.890414
0	Fe	0.530877	0.919677	0.889168
0	O	0.548688	0.899475	0.90204
0	F	0.517022	0.922423	0.912013
0	C	0.550544	0.972762	0.90421
0	C	0.534887	0.982942	0.935287
0	C	0.542673	0.968733	0.922635
0	H	0.542059	0.952954	0.926731
0	O	0.559706	0.916464	0.985605
0	O	0.512593	0.899361	0.88162
0	C	0.517839	0.881393	0.879197
0	H	0.541344	0.89263	0.912728
0	F	0.600577	0.890059	0.923463
0	H	0.472835	0.924807	0.985102
0	O	0.576713	0.891232	0.880049
0	H	0.608948	0.924039	0.876505
0	O	0.512307	0.94088	0.87818
0	H	0.475196	0.953714	0.880941
0	C	0.613774	0.991018	0.941
0	C	0.616578	0.886985	0.986943
0	C	0.617042	0.955812	0.936143
0	O	0.551813	0.959057	0.872416
0	H	0.578927	0.904411	0.883034
0	O	0.534769	0.877014	0.871757
0	H	0.588954	0.887775	0.873075
0	C	0.550983	0.992274	0.897968
0	O	0.620419	0.881324	0.953585
0	O	0.62144	0.921232	0.938144
0	Fe	0.626861	0.894118	0.927913
0	C	0.628368	0.885958	0.969978
0	C	0.625062	0.974669	0.935139
0	C	0.679784	0.976488	0.983786
0	C	0.69773	0.884598	0.919093
0	O	0.683507	0.940997	0.901109
0	C	0.734646	0.903775	0.97476
0	C	0.682581	0.961555	0.968991
0	Fe	0.667783	0.883276	0.952755
0	H	0.747439	0.915101	0.928474
0	C	0.641095	0.907696	0.887938
0	H	0.68419	0.965099	0.953374
0	H	0.728182	0.91094	0.98755
0	O	0.733682	0.947093	0.939692
0	O	0.680433	0.931498	0.942088
0	C	0.762505	0.881296	0.924511
0	O	0.759075	0.890177	0.906961
0	H	0.640365	0.977057	0.930039
0	C	0.742751	0.884561	0.975914
0	C	0.68321	0.926251	0.959036
0	C	0.776194	0.968123	0.968267
0	O	0.690463	0.876712	0.933592
0	C	0.734778	0.974592	0.883987
0	H	0.741354	0.925048	0.893621
0	O	0.654897	0.898219	0.933024
0	O	0.682184	0.908042	0.963998
0	O	0.726938	0.945521	0.972208
0	O	0.770203	0.9498	0.919378
0	H	0.76081	0.966698	0.969201
0	C	0.775262	0.964142	0.93101
0	C	0.735727	0.915247	0.957587
0	C	0.752889	0.888909	0.942238
0	C	0.731879	0.936909	0.956756
0	H	0.754777	0.913964	0.877522
0	Fe	0.669107	0.919175	0.918001
0	O	0.644984	0.938193	0.922701
0	H	0.732202	0.962277	0.944285
0	O	0.77463	0.981587	0.925019
0	Fe	0.769756	0.946025	0.888315
0	O	0.693198	0.901712	0.913637
0	C	0.629128	0.937539	0.932665
0	O	0.627976	0.90568	0.900377
0	C	0.682965	0.941839	0.974276
0	H	0.674032	0.946224	0.891994
0	C	0.745524	0.90772	0.941604
0	O	0.64633	0.889348	0.971666
0	O	0.658743	0.90883	0.892208
0	O	0.755469	0.920854	0.89053
0	H	0.694349	0.934437	0.893414
0	O	0.743383	0.958675	0.881155
0	O	0.743124	0.987744	0.894395
0	O	0.783542	0.970595	0.886043
0	C	0.714906	0.978165	0.872763
0	H	0.686232	0.87883	0.883205
0	O	0.761843	0.992673	0.992051
0	Fe	0.77263	0.994014	0.899127
0	C	0.75317	0.878405	0.959817
0	C	0.708939	0.872867	0.904762
0	H	0.688638	0.875359	0.98183
0	C	0.681495	0.936557	0.993471
0	H	0.776198	0.900567	0.982891
0	H	0.764239	0.880583	0.895191
0	C	0.785228	0.962485	0.9507
0	O	0.460468	0.0695793	0.977904
0	H	0.555608	0.995877	0.883395
0	H	0.585164	0.998446	0.953787
0	O	0.590083	0.0426503	0.985613
0	O	0.542157	0.0295502	0.883238
0	O	0.540709	0.0416306	0.91304
0	C	0.54234	0.0276074	0.901644
0	Fe	0.542276	0.0707288	0.90688
0	O	0.543341	0.100171	0.901634
0	O	0.511888	0.104956	0.898226
0	O	0.569364	0.0678346	0.891608
0	O	0.527825	0.0684031	0.881977
0	Fe	0.504412	0.0838766	0.878247
0	O	0.51631	0.0739277	0.921367
0	O	0.492915	0.0678125	0.899491
0	C	0.500734	0.0650084	0.916411
0	F	0.55687	0.0745786	0.929338
0	C	0.473161	0.0557687	0.978294
0	C	0.466325	0.0306298	0.953147
0	C	0.49272	0.054351	0.948425
0	C	0.467543	0.0257704	0.933339
0	C	0.491673	0.0506894	0.928924
0	C	0.479566	0.0362529	0.921521
0	C	0.478135	0.0462248	0.960795
0	H	0.501953	0.0668736	0.953751
0	H	0.477131	0.0355255	0.906763
0	C	0.535336	0.00250206	0.928676
0	C	0.543442	0.00703907	0.909734
0	H	0.531052	0.0147375	0.938297
0	H	0.611175	0.0904184	0.969079
0	O	0.615503	0.0144699	0.965166
0	O	0.552204	0.110883	0.982942
0	C	0.528639	0.111532	0.901438
0	C	0.574228	0.0667538	0.873385
0	O	0.477903	0.0988501	0.875121
0	H	0.539232	0.113619	0.977765
0	H	0.588533	0.0551318	0.977564
0	H	0.468104	0.0286645	0.872399
0	H	0.558252	0.012855	0.994099
0	H	0.536826	0.0180995	0.985602
0	H	0.468239	0.0876541	0.873383
0	H	0.455407	0.0236453	0.962362
0	O	0.480176	0.0492493	0.994101
0	H	0.61339	0.0520057	0.871069
0	C	0.62133	0.0979945	0.959586
0	Fe	0.619717	0.0371127	0.983089
0	O	0.620905	0.0570876	0.960875
0	O	0.676777	0.11768	0.913834
0	O	0.73484	0.117358	0.938572
0	C	0.623024	0.00935679	0.948972
0	C	0.676779	0.997748	0.979223
0	H	0.71285	0.00982864	0.875693
0	H	0.727563	0.999892	0.979643
0	C	0.700139	0.113359	0.961082
0	C	0.729996	0.100011	0.94492
0	O	0.684743	0.0422521	0.969903
0	H	0.713707	0.0656955	0.958759
0	O	0.646922	0.0319791	0.981598
0	C	0.636172	0.0659241	0.953627
0	O	0.652105	0.0570766	0.950354
0	C	0.635098	0.0870653	0.950396
0	C	0.711946	0.097264	0.956402
0	C	0.684031	0.0560724	0.982604
0	F	0.761655	0.0156142	0.912249
0	O	0.74203	0.0843776	0.940687
0	C	0.649146	0.0967079	0.939666
0	O	0.669492	0.00217089	0.962764
0	C	0.67848	0.0940607	0.980795
0	F	0.673913	0.0284055	0.934103
0	C	0.706773	0.0785797	0.964557
0	C	0.684359	0.111924	0.973833
0	F	0.752285	0.0254432	0.971725
0	H	0.706939	0.0772347	0.887496
0	O	0.638268	0.0177063	0.941536
0	H	0.708597	0.0549373	0.887428
0	O	0.699599	0.0648531	0.887404
0	H	0.661695	0.0885816	0.934009
0	H	0.753061	0.0893132	0.930632
0	Fe	0.660337	0.0298458	0.957198
0	C	0.689724	0.0761601	0.975977
0	O	0.724915	0.0099503	0.989818
0	C	0.649032	0.117538	0.937068
0	O	0.680665	0.0109803	0.991733
0	O	0.770029	0.00730142	0.874385
0	H	0.668771	0.11834	0.869837
0	H	0.665689	0.0945542	0.990629
0	C	0.621853	0.118084	0.960014
0	Fe	0.542292	0.981008	0.994709
0	O	0.541157	0.953017	0.995861
0	C	0.474722	0.918349	0.000364669
0	C	0.459549	0.906802	0.0317684
0	C	0.512315	0.918271	0.99903
0	O	0.527705	0.915767	0.00853518
0	Fe	0.540641	0.938766	0.0216024
0	F	0.54024	0.924644	0.0445724
0	O	0.554496	0.959133	0.0386408
0	O	0.562295	0.979538	0.0152181
0	C	0.584243	0.977673	0.0409197
0	C	0.594605	0.964768	0.0523262
0	C	0.565241	0.972574	0.0321969
0	O	0.566475	0.926873	0.0153371
0	C	0.589696	0.904606	0.00173465
0	C	0.600322	0.904093	0.0193593
0	C	0.571032	0.91659	0.0002329
0	O	0.514956	0.950526	0.028636
0	O	0.51819	0.980428	0.0150739
0	C	0.507972	0.9675	0.0249735
0	H	0.594219	0.911577	0.032879
0	H	0.587867	0.952865	0.0601656
0	O	0.534471	0.896242	0.0865553
0	O	0.499611	0.892835	0.0635672
0	C	0.48736	0.97336	0.031301
0	H	0.478091	0.945563	0.0433181
0	C	0.494247	0.908839	0.0287369
0	C	0.493488	0.914775	0.00909011
0	C	0.614572	0.968392	0.0558217
0	H	0.541624	0.89726	0.0737682
0	H	0.508625	0.907059	0.0350345
0	H	0.543397	0.890892	0.0962866
0	H	0.560351	0.958582	0.108607
0	Fe	0.511421	0.877102	0.0844604
0	C	0.473294	0.960716	0.0403414
0	C	0.4819	0.897244	0.060618
0	C	0.478112	0.905026	0.0405346
0	Fe	0.547659	0.991044	0.110487
0	O	0.520585	0.942201	0.102287
0	O	0.552961	0.965033	0.0977775
0	H	0.560787	0.967439	0.0861618
0	O	0.497706	0.893906	0.10446
0	H	0.514193	0.963068	0.0627287
0	Fe	0.503164	0.96699	0.0973277
0	H	0.512248	0.98404	0.0677245
0	O	0.518672	0.972391	0.0730321
0	O	0.48495	0.950918	0.0802339
0	H	0.493561	0.939791	0.0775802
0	H	0.474424	0.945509	0.0884116
0	O	0.472061	0.876901	0.115352
0	O	0.467862	0.892194	0.0721946
0	O	0.486113	0.991509	0.0916311
0	O	0.612588	0.906962	0.0957176
0	H	0.600872	0.909152	0.0878936
0	C	0.619257	0.895211	0.0210387
0	C	0.458242	0.913529	0.0114756
0	C	0.481559	0.991981	0.0266863
0	C	0.594728	0.992825	0.0304294
0	C	0.615201	0.9939	0.030866
0	O	0.519553	0.984652	0.113914
0	H	0.514495	0.93066	0.0964019
0	H	0.614155	0.892665	0.0949792
0	C	0.45446	0.967587	0.0456797
0	H	0.583549	0.984719	0.103871
0	C	0.486483	0.889184	0.118251
0	H	0.774128	0.933662	0.00936587
0	C	0.747242	0.876199	0.995625
0	H	0.683914	0.869842	0.109537
0	O	0.620865	0.937899	0.0712801
0	O	0.741204	0.884479	0.0103789
0	C	0.777897	0.986805	0.998515
0	H	0.761716	0.953162	0.112803
0	O	0.775773	0.9339	0.0240554
0	H	0.681755	0.921674	0.997007
0	O	0.765509	0.966948	0.115703
0	C	0.626306	0.885745	0.00513408
0	C	0.750685	0.975892	0.0558814
0	H	0.736323	0.902026	0.0775945
0	O	0.66793	0.881163	0.0633506
0	Fe	0.637668	0.915126	0.0806264
0	H	0.64044	0.982682	0.0449959
0	C	0.66151	0.878195	0.0800743
0	C	0.676055	0.944514	0.0274405
0	O	0.665002	0.954085	0.0392884
0	C	0.705987	0.927393	0.0687649
0	C	0.624526	0.982195	0.0447056
0	C	0.626135	0.955352	0.0682899
0	C	0.676918	0.969977	0.00254474
0	F	0.732636	0.882256	0.0487947
0	H	0.672283	0.980798	0.013473
0	Fe	0.668667	0.949895	0.068267
0	C	0.759526	0.922799	0.0692915
0	H	0.777366	0.948844	0.0601306
0	O	0.650611	0.902671	0.0334609
0	O	0.659973	0.923536	0.0663363
0	C	0.725873	0.931415	0.073433
0	O	0.677971	0.977573	0.070446
0	H	0.678078	0.981846	0.0848217
0	F	0.688637	0.890914	0.0330624
0	O	0.625776	0.901451	0.0555149
0	C	0.749017	0.95696	0.0665689
0	C	0.665502	0.937311	0.109341
0	C	0.774117	0.907355	0.0647269
0	O	0.765796	0.98017	0.0463699
0	O	0.768874	0.89012	0.0616279
0	O	0.649172	0.928487	0.105565
0	H	0.731948	0.915431	0.0325732
0	C	0.731259	0.951757	0.0724518
0	Fe	0.755432	0.886512	0.0360829
0	Fe	0.674495	0.906593	0.0499788
0	O	0.735522	0.986817	0.0559933
0	C	0.740681	0.917619	0.0747939
0	O	0.746624	0.914783	0.0344473
0	O	0.695954	0.942264	0.0632697
0	O	0.698671	0.910741	0.0682481
0	O	0.641917	0.961156	0.0758494
0	O	0.683384	0.928371	0.0326577
0	O	0.65235	0.890339	0.0898327
0	O	0.675375	0.945297	0.096242
0	H	0.719602	0.961978	0.0751044
0	C	0.632859	0.90033	0.0375945
0	C	0.763636	0.942744	0.0649544
0	C	0.678764	0.950729	0.00743781
0	H	0.731349	0.981283	0.0113891
0	H	0.640806	0.879563	0.00587804
0	H	0.668924	0.986544	0.0638428
0	O	0.719588	0.985708	0.0183944
0	O	0.780061	0.892658	0.0225458
0	H	0.75733	0.975801	0.106871
0	H	0.715371	0.97422	0.0262327
0	H	0.697974	0.99059	0.046989
0	H	0.781927	0.947016	0.0259117
0	C	0.457681	0.0194322	0.0282168
0	H	0.60988	0.112672	0.0705752
0	O	0.543689	0.0121326	0.996892
0	O	0.457066	0.100454	0.00477304
0	H	0.588645	0.0461985	0.999457
0	O	0.577767	0.997273	0.108509
0	H	0.45782	0.0756736	0.0902722
0	C	0.460025	0.0320156	0.112947
0	H	0.551315	0.0154758	0.0829009
0	H	0.51189	0.112438	0.997666
0	O	0.543589	0.00382056	0.0841334
0	C	0.455212	0.0519369	0.10968
0	C	0.462768	0.998914	0.0327093
0	H	0.587177	0.00179717	0.0203338
0	H	0.507732	0.0394513	0.0249192
0	O	0.486637	0.0878076	0.0124729
0	C	0.475674	0.102154	0.007881
0	Fe	0.478783	0.0588794	0.0215089
0	O	0.508138	0.0530723	0.0233342
0	H	0.512422	0.0563634	0.0102632
0	O	0.560888	0.105045	0.0168494
0	O	0.477851	0.0663116	0.0499889
0	H	0.563132	0.0972588	0.0284004
0	H	0.491349	0.00195051	0.0189869
0	C	0.464733	0.0616443	0.094487
0	C	0.47462	0.0514482	0.0804835
0	O	0.472329	0.031216	0.0284134
0	H	0.57341	0.10356	0.00883891
0	C	0.468081	0.0560392	0.0616879
0	C	0.480147	0.0325693	0.0840451
0	H	0.488313	0.0250663	0.0731075
0	C	0.472455	0.0223751	0.100897
0	C	0.479225	0.00209655	0.104978
0	C	0.612873	0.104618	0.0408321
0	O	0.615354	0.017942	0.00602937
0	C	0.61519	0.102202	0.0603752
0	H	0.610821	0.0898006	0.0120573
0	H	0.559711	0.0494292	0.116259
0	C	0.615313	0.0891022	0.0278573
0	H	0.579651	0.00637326	0.097321
0	O	0.782067	0.111164	0.0358661
0	H	0.676237	0.0389296	0.0395629
0	O	0.643103	0.0456093	0.0228425
0	O	0.715521	0.0311608	0.0192652
0	C	0.716143	0.118209	0.0209557
0	Fe	0.769065	0.116528	0.0861332
0	O	0.675355	0.0538099	0.998815
0	O	0.73097	0.0276444	0.0571699
0	O	0.737776	0.118922	0.0880313
0	O	0.785804	0.994974	0.01399
0	O	0.677322	0.0270205	0.0314454
0	O	0.741101	0.0457998	0.00440676
0	Fe	0.774192	0.00793525	0.0381886
0	C	0.630224	0.0584031	0.0187581
0	Fe	0.660867	0.0290629	0.00572916
0	C	0.622764	0.0843828	0.0669549
0	O	0.6225	0.0737075	0.101062
0	H	0.783493	0.0742841	0.0322142
0	H	0.698084	0.0981519	0.0980326
0	Fe	0.776183	0.0715066	0.102332
0	Fe	0.7522	0.0193645	0.997155
0	F	0.783305	0.0459914	0.0983782
0	C	0.744745	0.0269926	0.0693116
0	O	0.698917	0.00415503	0.0496883
0	O	0.644629	0.00605262	0.014907
0	C	0.738269	0.0661	0.0417421
0	C	0.726006	0.0497532	0.0937792
0	C	0.626242	0.00733813	0.0169329
0	H	0.700327	0.00438345	0.0639205
0	C	0.739504	0.0821928	0.0535359
0	C	0.745022	0.0232851	0.105368
0	O	0.623214	0.0599977	0.00207155
0	H	0.719715	0.0578723	0.0818747
0	O	0.766349	0.0968283	0.0656541
0	C	0.724607	0.0553174	0.114192
0	H	0.754101	0.0115935	0.101817
0	O	0.751243	0.0122191	0.0247876
0	Fe	0.725861	0.00785373	0.0372155
0	C	0.698931	0.106009	0.111751
0	H	0.669826	0.0177633	0.0396626
0	C	0.721414	0.0992999	0.0293324
0	C	0.628989	0.0855209	0.0881482
0	C	0.628983	0.0701531	0.0536806
0	O	0.639609	0.100655	0.0931463
0	C	0.73067	0.0993791	0.0467058
0	O	0.761624	0.0194827	0.0645071
0	C	0.754576	0.0834234	0.0677109
0	O	0.756107	0.0705267	0.0808184
0	C	0.715012	0.0816252	0.0207765
0	H	0.749138	0.055531	0.0430215
0	C	0.739596	0.0346695	0.0896022
0	H	0.732384	0.112768	0.0546325
0	O	0.76952	0.0981849	0.106784
0	C	0.624899	0.0728005	0.034115
0	O	0.783734	0.0358124	0.0304228
0	H	0.701984	0.0815433	0.0115015
0	C	0.725603	0.0466122	0.0157104
0	C	0.723778	0.0640385	0.0274365
0	O	0.779889	0.0312438	0.99831
0	H	0.640073	0.0591378	0.0576586
0	O	0.819762	0.154194	0.174137
0	O	0.839672	0.179019	0.171666
0	C	0.800969	0.162131	0.142555
0	C	0.817588	0.172574	0.146817
0	C	0.825687	0.168481	0.165705
0	C	0.899461	0.139087	0.142155
0	O	0.871185	0.149392	0.169803
0	Fe	0.820335	0.153071	0.203052
0	O	0.85236	0.192938	0.207852
0	O	0.821655	0.182781	0.207842
0	C	0.834381	0.196438	0.210177
0	Fe	0.861568	0.17122	0.188332
0	O	0.877126	0.19207	0.173673
0	O	0.81939	0.151503	0.232034
0	O	0.84803	0.151596	0.202571
0	O	0.886373	0.166603	0.204988
0	C	0.888169	0.161325	0.222329
0	O	0.876822	0.150004	0.231197
0	H	0.898942	0.154307	0.145978
0	H	0.867299	0.20224	0.17253
0	H	0.876799	0.18747	0.160015
0	C	0.902704	0.171799	0.232695
0	C	0.82115	0.21477	0.237631
0	C	0.828984	0.215662	0.218931
0	C	0.831239	0.234881	0.210311
0	H	0.83821	0.236503	0.196214
0	C	0.830632	0.178414	0.13265
0	H	0.927392	0.163857	0.213986
0	C	0.922606	0.171208	0.22691
0	C	0.881828	0.134866	0.174239
0	Fe	0.861748	0.130423	0.214898
0	O	0.841523	0.13013	0.239124
0	O	0.93825	0.242057	0.216653
0	C	0.895457	0.126437	0.158253
0	H	0.842208	0.18802	0.137654
0	C	0.90657	0.133013	0.124216
0	O	0.881282	0.127073	0.191002
0	C	0.936549	0.181035	0.238604
0	H	0.791261	0.156644	0.153395
0	H	0.936179	0.233224	0.205301
0	O	0.789722	0.155957	0.203469
0	H	0.81951	0.200621	0.244474
0	H	0.951086	0.236815	0.222231
0	C	0.799046	0.154594	0.123799
0	O	0.817021	0.122702	0.19756
0	H	0.886226	0.204215	0.125556
0	H	0.929167	0.136329	0.243267
0	O	0.928251	0.125599	0.231021
0	H	0.93107	0.20773	0.121972
0	O	0.942657	0.214924	0.130455
0	O	0.0845296	0.222904	0.119558
0	C	0.960209	0.205658	0.126799
0	C	0.976952	0.213079	0.138251
0	C	0.0619183	0.23995	0.176894
0	O	0.103819	0.189455	0.138764
0	C	0.00748167	0.14944	0.234031
0	C	0.0377153	0.162966	0.188926
0	O	0.0505001	0.173789	0.195314
0	Fe	0.0762026	0.179789	0.181878
0	O	0.0835592	0.15128	0.182973
0	F	0.0846137	0.182725	0.207958
0	C	0.0704899	0.22138	0.173169
0	O	0.0309994	0.181985	0.140109
0	O	0.0327994	0.137233	0.135981
0	C	0.00956505	0.227744	0.159455
0	O	0.0465943	0.211057	0.139661
0	C	0.990244	0.235293	0.163116
0	H	0.0200618	0.140596	0.141722
0	C	0.00275624	0.127083	0.206568
0	C	0.000944018	0.130973	0.226062
0	C	0.0307481	0.20106	0.141446
0	C	0.0108092	0.141233	0.194386
0	H	0.0215574	0.23492	0.166496
0	O	0.0733745	0.135474	0.155083
0	H	0.959846	0.23262	0.155651
0	Fe	0.0516692	0.157816	0.145206
0	O	0.0967045	0.152983	0.230506
0	O	0.0684419	0.178196	0.153916
0	C	0.0217328	0.156497	0.201397
0	O	0.0404128	0.154895	0.172482
0	H	0.0109336	0.137916	0.178823
0	Fe	0.0756155	0.200632	0.138117
0	C	0.957232	0.184795	0.231966
0	H	0.977793	0.183556	0.211931
0	C	0.0821262	0.135488	0.172067
0	C	0.995861	0.20591	0.135054
0	O	0.103419	0.187729	0.171612
0	O	0.06573	0.207375	0.183793
0	C	0.0192342	0.161511	0.2215
0	O	0.961868	0.180921	0.212718
0	C	0.974432	0.227674	0.152584
0	H	0.0274613	0.17335	0.228598
0	C	0.0120265	0.211859	0.146335
0	O	0.0825841	0.218974	0.159973
0	C	0.111685	0.184782	0.155116
0	C	0.109525	0.125748	0.194668
0	H	0.108823	0.140557	0.199974
0	H	0.069677	0.240362	0.208126
0	H	0.0932213	0.138582	0.230011
0	H	0.0874711	0.160858	0.238779
0	H	0.0531257	0.242948	0.145976
0	H	0.997942	0.194099	0.124178
0	O	0.968864	0.192215	0.244263
0	H	0.0308415	0.136653	0.12119
0	H	0.996424	0.120159	0.236831
0	C	0.787268	0.351882	0.202143
0	H	0.78768	0.314956	0.164919
0	O	0.834875	0.320553	0.126757
0	C	0.821338	0.249683	0.240946
0	O	0.923679	0.264664	0.186454
0	O	0.915366	0.294592	0.194733
0	C	0.910533	0.277993	0.188994
0	C	0.93181	0.301015	0.228087
0	O	0.810383	0.280727	0.20599
0	O	0.8376	0.284405	0.224517
0	C	0.824769	0.273372	0.215764
0	Fe	0.803251	0.310431	0.198923
0	O	0.811103	0.318184	0.224863
0	O	0.850468	0.323939	0.209939
0	O	0.832208	0.310821	0.187878
0	C	0.849044	0.312799	0.19563
0	C	0.870433	0.310917	0.168867
0	C	0.875991	0.287617	0.194992
0	C	0.889583	0.276746	0.182815
0	C	0.865729	0.303725	0.186928
0	H	0.873141	0.283343	0.20935
0	H	0.863944	0.325013	0.165928
0	C	0.826225	0.252064	0.221346
0	H	0.903487	0.277678	0.23019
0	Fe	0.837315	0.314348	0.234435
0	O	0.937659	0.31535	0.217703
0	O	0.792619	0.303046	0.171414
0	O	0.799278	0.340615	0.193195
0	C	0.888751	0.281141	0.162597
0	C	0.883262	0.300382	0.157046
0	O	0.918346	0.33333	0.185044
0	H	0.898399	0.273577	0.153064
0	O	0.877821	0.323059	0.132449
0	H	0.911921	0.334635	0.198058
0	H	0.925743	0.345536	0.183018
0	C	0.886265	0.306984	0.137165
0	O	0.893754	0.295613	0.124558
0	O	0.934994	0.282527	0.224081
0	Fe	0.938564	0.310879	0.187638
0	H	0.936084	0.289801	0.157873
0	O	0.938176	0.304341	0.157407
0	H	0.925747	0.308333	0.152133
0	Fe	0.949609	0.26666	0.203716
0	O	0.809344	0.356013	0.241826
0	C	0.916805	0.303135	0.242618
0	Fe	0.792126	0.33236	0.242219
0	C	0.903888	0.288169	0.242556
0	H	0.8734	0.320444	0.238124
0	H	0.839211	0.323435	0.13996
0	H	0.825767	0.331699	0.12321
0	H	0.952812	0.369164	0.17472
0	H	0.0906772	0.367786	0.218291
0	C	0.0611768	0.247713	0.196287
0	O	0.958245	0.331484	0.1803
0	C	0.0533687	0.249731	0.161034
0	O	0.966018	0.250596	0.184305
0	F	0.063719	0.336323	0.200906
0	C	0.969734	0.33772	0.193277
0	C	0.0579227	0.267557	0.19662
0	H	0.0515129	0.306098	0.132249
0	O	0.990126	0.291795	0.220188
0	Fe	0.986531	0.296472	0.191066
0	C	0.0469633	0.277077	0.182118
0	C	0.975627	0.362201	0.217528
0	C	0.968477	0.357821	0.19974
0	H	0.974268	0.293966	0.156524
0	H	0.0306781	0.360413	0.219409
0	O	0.993933	0.266772	0.182251
0	H	0.0157645	0.297517	0.13816
0	O	0.0333747	0.267568	0.132566
0	Fe	0.0860354	0.321358	0.196576
0	C	0.0448343	0.267285	0.164092
0	O	0.983016	0.304223	0.161384
0	O	0.110531	0.30599	0.192577
0	C	0.979695	0.281299	0.231475
0	C	0.0738979	0.27889	0.204165
0	O	0.0244248	0.294126	0.151177
0	O	0.981987	0.32575	0.200342
0	C	0.0882225	0.319286	0.150839
0	C	0.0332418	0.275672	0.148616
0	C	0.983588	0.251593	0.177576
0	C	0.0821651	0.313479	0.129647
0	H	0.98465	0.352646	0.225554
0	O	0.0720975	0.296894	0.204449
0	C	0.0967022	0.31232	0.239534
0	F	0.012097	0.301746	0.190794
0	O	0.0920122	0.325275	0.226404
0	O	0.090895	0.270953	0.204646
0	O	0.970295	0.266553	0.224413
0	O	0.104555	0.3274	0.153354
0	O	0.0270341	0.351063	0.229718
0	O	0.0998797	0.346968	0.190191
0	O	0.95832	0.290884	0.191993
0	O	0.105222	0.296726	0.234764
0	H	0.0438116	0.2919	0.182815
0	O	0.0781232	0.315377	0.165806
0	H	0.014803	0.34579	0.226165
0	C	0.0636538	0.306702	0.12156
0	H	0.111785	0.318478	0.120755
0	Fe	0.116705	0.284895	0.209909
0	C	0.117179	0.349807	0.195843
0	H	0.115502	0.260499	0.236563
0	C	0.847788	0.184398	0.366763
0	H	0.898549	0.209948	0.367497
0	C	0.827552	0.141193	0.244968
0	C	0.787217	0.176668	0.297179
0	C	0.885255	0.202672	0.366935
0	C	0.817837	0.231222	0.248817
0	C	0.896707	0.182206	0.248822
0	O	0.823511	0.158018	0.361191
0	H	0.8814	0.183885	0.251783
0	O	0.800283	0.186974	0.305327
0	O	0.810973	0.216125	0.278652
0	C	0.806961	0.229134	0.266
0	Fe	0.803642	0.216856	0.306468
0	F	0.827473	0.211531	0.314518
0	O	0.886419	0.215783	0.271688
0	C	0.903106	0.208365	0.27255
0	Fe	0.874976	0.236321	0.292474
0	O	0.888717	0.237047	0.337559
0	O	0.84776	0.224882	0.285785
0	O	0.876571	0.215992	0.315716
0	C	0.880149	0.220039	0.333521
0	H	0.846383	0.231311	0.272929
0	C	0.854985	0.194573	0.349639
0	C	0.873488	0.205473	0.350011
0	H	0.846205	0.195899	0.337162
0	C	0.817312	0.14009	0.264863
0	C	0.811591	0.157392	0.275254
0	H	0.821686	0.169402	0.276692
0	H	0.848576	0.210829	0.283085
0	C	0.910067	0.192421	0.259619
0	O	0.916265	0.215856	0.282877
0	O	0.797357	0.217746	0.335632
0	C	0.930104	0.190034	0.255796
0	O	0.926686	0.23734	0.327116
0	O	0.941749	0.240382	0.29803
0	C	0.94124	0.23529	0.31604
0	H	0.940037	0.196821	0.265527
0	C	0.793698	0.158503	0.28658
0	F	0.939026	0.238818	0.260383
0	Fe	0.920538	0.244374	0.279328
0	C	0.803593	0.125083	0.264762
0	O	0.792784	0.241052	0.268015
0	O	0.116444	0.148869	0.268816
0	H	0.0687874	0.144075	0.259291
0	C	0.00145939	0.124212	0.358575
0	O	0.0907038	0.238707	0.365707
0	C	0.113847	0.14142	0.302542
0	C	0.0794926	0.212001	0.301299
0	O	0.056879	0.15217	0.321402
0	H	0.0683032	0.215614	0.313206
0	H	0.00403993	0.21101	0.352697
0	C	0.0943368	0.142423	0.301314
0	C	0.984662	0.205948	0.327241
0	O	0.991457	0.143321	0.330384
0	Fe	0.0330562	0.16699	0.324368
0	O	0.0583834	0.166892	0.285878
0	O	0.0218491	0.145162	0.342597
0	C	0.110048	0.217151	0.285734
0	H	0.0490509	0.196288	0.344236
0	O	0.994893	0.149209	0.26765
0	C	0.994259	0.187881	0.319334
0	H	0.0852625	0.180329	0.263912
0	C	0.00834012	0.153482	0.255728
0	H	0.0883598	0.149518	0.288282
0	C	0.102555	0.234006	0.316094
0	C	0.958063	0.227492	0.325487
0	O	0.0459839	0.182409	0.347947
0	H	0.0361902	0.184695	0.357858
0	C	0.00473513	0.139398	0.343608
0	C	0.991618	0.21581	0.345
0	C	0.979385	0.231402	0.352576
0	Fe	0.0395431	0.143331	0.282189
0	C	0.962154	0.23553	0.343751
0	C	0.0748124	0.197559	0.288342
0	O	0.987959	0.178376	0.304411
0	C	0.106804	0.202695	0.272618
0	F	0.966827	0.144646	0.298387
0	O	0.0244784	0.159693	0.261796
0	O	0.00944627	0.183322	0.328468
0	C	0.0884064	0.192241	0.273866
0	C	0.0967298	0.222237	0.300331
0	C	0.0584405	0.184074	0.293133
0	C	0.969165	0.213572	0.316665
0	Fe	0.993589	0.148649	0.299898
0	C	0.0619144	0.135819	0.315104
0	H	0.965677	0.208231	0.302058
0	O	0.0216123	0.153252	0.302657
0	O	0.0452431	0.18855	0.30629
0	O	0.0590371	0.133659	0.260391
0	O	0.0513057	0.126627	0.303772
0	C	0.0823111	0.131807	0.31509
0	H	0.0517506	0.133171	0.247592
0	C	0.0896946	0.12217	0.33072
0	O	0.118484	0.230494	0.323419
0	C	0.108893	0.120289	0.331211
0	H	0.789001	0.298293	0.310674
0	O	0.786174	0.33422	0.318525
0	O	0.880027	0.351173	0.369016
0	O	0.901344	0.24709	0.298458
0	O	0.809658	0.245969	0.30832
0	Fe	0.909291	0.369412	0.308293
0	H	0.864239	0.319071	0.258365
0	H	0.820249	0.262659	0.249526
0	O	0.792646	0.335845	0.350327
0	O	0.865002	0.31111	0.246005
0	O	0.899447	0.248576	0.258617
0	H	0.824463	0.3178	0.358901
0	O	0.934784	0.362838	0.321987
0	C	0.818026	0.305724	0.350349
0	C	0.815232	0.272365	0.343557
0	C	0.804149	0.275799	0.326126
0	H	0.820406	0.257237	0.346614
0	O	0.80531	0.323596	0.269649
0	C	0.819967	0.311169	0.27269
0	O	0.826667	0.301215	0.258878
0	O	0.837606	0.341533	0.248373
0	C	0.858007	0.333942	0.333024
0	O	0.873933	0.328212	0.341641
0	O	0.909754	0.345196	0.289873
0	O	0.895491	0.321391	0.306378
0	C	0.903025	0.327687	0.290548
0	Fe	0.900451	0.33077	0.334025
0	C	0.82184	0.287464	0.356352
0	O	0.905062	0.301518	0.342454
0	O	0.929614	0.332681	0.328275
0	H	0.895719	0.299095	0.353404
0	H	0.916943	0.301528	0.350217
0	O	0.926073	0.271928	0.277307
0	O	0.860735	0.254731	0.311572
0	O	0.883691	0.276348	0.318473
0	C	0.865812	0.271772	0.314648
0	Fe	0.906775	0.257169	0.322952
0	O	0.910659	0.267051	0.351406
0	O	0.872102	0.258993	0.27116
0	C	0.887161	0.262282	0.261515
0	C	0.835128	0.323365	0.304485
0	C	0.851897	0.301291	0.326392
0	C	0.829093	0.30746	0.292065
0	C	0.851034	0.286773	0.312845
0	C	0.840611	0.289567	0.29489
0	C	0.847234	0.319812	0.321352
0	H	0.85895	0.29776	0.340157
0	H	0.840338	0.277715	0.283864
0	H	0.831109	0.338755	0.301749
0	C	0.916056	0.317298	0.25748
0	C	0.89361	0.282736	0.258883
0	C	0.903529	0.314514	0.273839
0	C	0.8928	0.29693	0.274584
0	H	0.924477	0.330341	0.255448
0	H	0.886428	0.292371	0.287668
0	C	0.80522	0.309301	0.335059
0	O	0.853503	0.351758	0.333571
0	C	0.82524	0.355245	0.25072
0	O	0.908705	0.341626	0.359194
0	C	0.79811	0.259804	0.312797
0	C	0.798299	0.294961	0.322921
0	C	0.940536	0.347173	0.328792
0	H	0.897455	0.266275	0.357559
0	C	0.794603	0.327744	0.334198
0	O	0.929477	0.277204	0.308986
0	H	0.919447	0.257959	0.357644
0	C	0.935713	0.279986	0.290976
0	O	0.894713	0.357098	0.328501
0	H	0.822451	0.356927	0.364928
0	H	0.95235	0.246982	0.349399
0	C	0.82667	0.368608	0.26803
0	H	0.795174	0.367707	0.273913
0	Fe	0.786316	0.361471	0.356177
0	O	0.812599	0.366125	0.369196
0	C	0.0520027	0.345409	0.283175
0	O	0.0789526	0.367817	0.255795
0	O	0.0609704	0.263776	0.347021
0	C	0.983332	0.244745	0.368416
0	Fe	0.0905337	0.264296	0.346244
0	C	0.954108	0.292093	0.282045
0	H	0.954673	0.320521	0.297664
0	C	0.976045	0.290291	0.252613
0	O	0.116661	0.294813	0.31442
0	C	0.996243	0.31216	0.362697
0	C	0.0982982	0.305045	0.276514
0	C	0.974364	0.359861	0.331003
0	C	0.994128	0.357365	0.331009
0	O	0.0386427	0.344064	0.270235
0	C	0.962037	0.344553	0.334862
0	C	0.983057	0.308763	0.257535
0	H	0.110912	0.294733	0.273875
0	H	0.0574595	0.2494	0.349914
0	O	0.0903429	0.246683	0.322252
0	Fe	0.0212319	0.364644	0.256027
0	C	0.97679	0.320002	0.273561
0	C	0.067905	0.330745	0.282237
0	H	0.068159	0.333622	0.250637
0	C	0.989513	0.325543	0.346245
0	H	0.994086	0.314705	0.247836
0	H	0.959499	0.268252	0.262694
0	C	0.985442	0.341595	0.274322
0	H	0.0168831	0.339706	0.338701
0	C	0.0906602	0.307778	0.295768
0	H	0.95961	0.316287	0.347389
0	O	0.0542593	0.361089	0.293032
0	C	0.0740664	0.327066	0.262878
0	O	0.000547922	0.294307	0.360215
0	C	0.0770108	0.321846	0.298112
0	O	0.105648	0.306198	0.35398
0	C	0.962671	0.282221	0.266135
0	C	0.0904899	0.315791	0.25996
0	O	0.086634	0.287279	0.326048
0	C	0.0986534	0.296141	0.312902
0	O	0.980513	0.354606	0.287371
0	O	0.998078	0.345334	0.260938
0	C	0.969496	0.327515	0.343238
0	C	0.961204	0.311344	0.285857
0	H	0.0705882	0.323819	0.312055
0	C	0.00169086	0.339745	0.339252
0	H	0.0562883	0.266233	0.333352
0	O	0.119045	0.266563	0.344822
0	C	0.847591	0.232229	0.436313
0	O	0.809239	0.175372	0.42285
0	O	0.831991	0.15206	0.428837
0	C	0.825324	0.169497	0.430016
0	O	0.884339	0.199305	0.458598
0	O	0.906159	0.22079	0.447679
0	C	0.890811	0.21669	0.457819
0	O	0.901668	0.145267	0.435716
0	C	0.908362	0.139984	0.419599
0	O	0.917005	0.194532	0.481958
0	Fe	0.892604	0.172637	0.445007
0	O	0.916983	0.182173	0.439868
0	O	0.90978	0.188588	0.398356
0	O	0.866154	0.16113	0.452507
0	O	0.901902	0.166623	0.47237
0	O	0.882687	0.180332	0.41704
0	C	0.908076	0.17836	0.486321
0	C	0.891015	0.186355	0.400737
0	H	0.869425	0.153437	0.464114
0	C	0.887041	0.230684	0.475148
0	C	0.833207	0.18152	0.460852
0	C	0.84625	0.198084	0.433053
0	C	0.837507	0.197254	0.472781
0	C	0.850675	0.213518	0.445027
0	C	0.846381	0.21374	0.464406
0	C	0.836124	0.182779	0.441316
0	H	0.845677	0.201269	0.417161
0	H	0.847467	0.227661	0.472187
0	H	0.82536	0.169835	0.467584
0	O	0.830761	0.238134	0.439965
0	O	0.820309	0.235885	0.40344
0	H	0.864286	0.15096	0.443045
0	Fe	0.813886	0.130503	0.423622
0	O	0.917353	0.152018	0.408521
0	Fe	0.928521	0.202964	0.454022
0	O	0.857561	0.233894	0.383755
0	C	0.860883	0.180773	0.381852
0	C	0.878279	0.190652	0.383236
0	O	0.808015	0.143551	0.39835
0	Fe	0.930705	0.175144	0.416067
0	H	0.857343	0.170002	0.393718
0	H	0.880448	0.137945	0.394767
0	F	0.939354	0.224062	0.464759
0	O	0.941683	0.209425	0.427044
0	O	0.818599	0.18076	0.384069
0	Fe	0.795121	0.168325	0.399302
0	O	0.842477	0.126382	0.383708
0	Fe	0.813749	0.130088	0.375046
0	C	0.792981	0.226858	0.375966
0	C	0.883551	0.124419	0.401907
0	O	0.859086	0.239725	0.424634
0	O	0.947066	0.170084	0.39086
0	H	0.857406	0.221823	0.391484
0	H	0.848106	0.232429	0.37252
0	H	0.932943	0.207503	0.415331
0	O	0.950147	0.186441	0.459357
0	O	0.946652	0.150256	0.427821
0	H	0.944717	0.136356	0.422524
0	C	0.901359	0.121479	0.411229
0	C	0.803691	0.243559	0.405817
0	H	0.803822	0.239151	0.466187
0	H	0.949921	0.155968	0.389206
0	H	0.943579	0.24385	0.408096
0	H	0.808368	0.227577	0.371152
0	H	0.86823	0.211137	0.493457
0	C	0.828702	0.199165	0.491223
0	C	0.876106	0.225011	0.492168
0	O	0.792074	0.145759	0.438559
0	C	0.787878	0.235831	0.393647
0	C	0.828552	0.173941	0.369616
0	C	0.119479	0.222451	0.439572
0	O	0.953903	0.240887	0.416886
0	H	0.95378	0.200734	0.424677
0	H	0.959568	0.175975	0.394236
0	O	0.952982	0.163862	0.436805
0	C	0.104792	0.227695	0.371765
0	C	0.111816	0.210338	0.423612
0	C	0.0112477	0.126377	0.376639
0	O	0.0445787	0.127893	0.402192
0	H	0.0855463	0.171923	0.484146
0	C	0.0866101	0.200729	0.393488
0	Fe	0.0728503	0.128772	0.41333
0	C	0.0389294	0.223457	0.467671
0	C	0.958486	0.171696	0.453075
0	C	0.0195594	0.237341	0.434159
0	H	0.993001	0.228727	0.44965
0	O	0.0658084	0.173298	0.434987
0	H	0.992065	0.151597	0.444268
0	C	0.00831891	0.21771	0.486987
0	Fe	0.0687916	0.152645	0.458391
0	O	0.0786127	0.235483	0.470217
0	C	0.00861176	0.230533	0.450311
0	O	0.0741809	0.175853	0.476699
0	C	0.073417	0.173197	0.417909
0	O	0.0761238	0.158091	0.408443
0	O	0.989162	0.21841	0.48973
0	H	0.0477057	0.21852	0.479956
0	O	0.0715881	0.137223	0.484912
0	O	0.0390932	0.156216	0.465184
0	C	0.0181948	0.223245	0.467587
0	C	0.00514644	0.152993	0.471336
0	H	0.102306	0.144284	0.466137
0	C	0.0496407	0.231575	0.45223
0	H	0.0923637	0.194769	0.442194
0	C	0.0845999	0.191163	0.41198
0	C	0.102359	0.214136	0.389826
0	O	0.0976939	0.149429	0.452979
0	C	0.0705487	0.236725	0.45386
0	H	0.10212	0.162491	0.450522
0	C	0.0241734	0.144863	0.463779
0	C	0.972038	0.169824	0.485957
0	H	0.0778233	0.195937	0.381838
0	O	0.0627178	0.129784	0.440621
0	C	0.0968287	0.197286	0.426831
0	C	0.97327	0.16308	0.46609
0	Fe	0.106722	0.237837	0.478511
0	C	0.0399449	0.237565	0.435691
0	C	0.990164	0.154821	0.459231
0	O	0.0244395	0.127305	0.457077
0	H	0.0143496	0.140502	0.381998
0	H	0.0629496	0.176068	0.485833
0	C	0.00513471	0.161901	0.490274
0	O	0.993581	0.244443	0.414178
0	O	0.0997521	0.12806	0.424183
0	O	0.0804448	0.242668	0.439123
0	O	0.0827266	0.125831	0.384637
0	O	0.114138	0.21905	0.456919
0	H	0.957682	0.175096	0.492549
0	C	0.115654	0.215904	0.40449
0	C	0.0635403	0.121585	0.491055
0	H	0.106872	0.119578	0.413524
0	H	0.0775969	0.136944	0.377726
0	H	0.948525	0.246829	0.429183
0	H	0.790392	0.332392	0.412154
0	C	0.899467	0.24753	0.477889
0	H	0.909311	0.251537	0.465337
0	O	0.809086	0.305074	0.418834
0	Fe	0.816625	0.263474	0.440977
0	O	0.833006	0.272221	0.420313
0	O	0.798433	0.255243	0.419268
0	Fe	0.844984	0.253832	0.401907
0	Fe	0.838224	0.299331	0.418672
0	O	0.833401	0.273548	0.462713
0	F	0.84125	0.325686	0.416479
0	O	0.866356	0.293641	0.419859
0	O	0.840315	0.302849	0.449178
0	C	0.838456	0.291476	0.46416
0	C	0.924206	0.345955	0.450185
0	C	0.906202	0.351514	0.459392
0	H	0.894611	0.34117	0.461651
0	C	0.843868	0.298787	0.484071
0	H	0.875558	0.302311	0.482399
0	C	0.926428	0.324874	0.444571
0	O	0.913143	0.311366	0.450653
0	H	0.918014	0.297447	0.4431
0	C	0.937896	0.36053	0.44464
0	O	0.940475	0.320006	0.433668
0	O	0.923439	0.280356	0.481923
0	C	0.874727	0.287497	0.405421
0	O	0.799971	0.287231	0.443733
0	C	0.908278	0.290532	0.396649
0	C	0.943139	0.295961	0.394534
0	C	0.923528	0.303065	0.39207
0	C	0.889745	0.298864	0.397502
0	H	0.909555	0.275247	0.400967
0	C	0.919982	0.323161	0.389218
0	C	0.885878	0.318022	0.393778
0	C	0.796852	0.30017	0.431116
0	H	0.931943	0.332657	0.384795
0	O	0.86785	0.272493	0.397069
0	O	0.832051	0.266043	0.379711
0	C	0.900805	0.33019	0.388958
0	O	0.835621	0.297386	0.387691
0	H	0.871159	0.323508	0.395281
0	C	0.830076	0.283965	0.375729
0	O	0.796988	0.250984	0.460848
0	O	0.835591	0.356754	0.456602
0	H	0.846359	0.347006	0.457293
0	O	0.94639	0.279634	0.401945
0	C	0.863156	0.299947	0.491322
0	H	0.933391	0.291241	0.486566
0	H	0.949543	0.356759	0.434918
0	H	0.786613	0.244659	0.453038
0	C	0.896792	0.343775	0.372969
0	H	0.81272	0.299651	0.491848
0	H	0.0479179	0.245857	0.424584
0	O	0.0909605	0.282358	0.370572
0	H	0.094497	0.267683	0.400843
0	C	0.0108612	0.248839	0.417994
0	O	0.108848	0.364256	0.434205
0	O	0.969449	0.250522	0.379846
0	O	0.95641	0.308005	0.391605
0	C	0.106824	0.33644	0.411076
0	Fe	0.105758	0.259322	0.434197
0	O	0.988603	0.282897	0.398779
0	C	0.0373218	0.332132	0.437743
0	C	0.974302	0.275347	0.477273
0	O	0.970944	0.303359	0.432415
0	H	0.975992	0.321759	0.460708
0	Fe	0.0114609	0.277385	0.383469
0	C	0.05247	0.336912	0.450615
0	C	0.0718564	0.311739	0.436747
0	Fe	0.972188	0.262565	0.407497
0	H	0.022425	0.337917	0.440198
0	C	0.0241466	0.310014	0.412219
0	O	0.0568951	0.341822	0.483578
0	C	0.9721	0.288588	0.443136
0	O	0.0878201	0.282317	0.432382
0	C	0.976624	0.309863	0.470963
0	O	0.999881	0.342248	0.483821
0	O	0.993172	0.319365	0.3793
0	H	0.972483	0.346419	0.400398
0	O	0.975044	0.339246	0.412981
0	O	0.0955352	0.301083	0.457605
0	C	0.0401861	0.317981	0.423743
0	O	0.00756532	0.313591	0.419257
0	C	0.10058	0.355957	0.417699
0	C	0.0993215	0.328351	0.393081
0	H	0.0896277	0.336097	0.383876
0	C	0.0480748	0.346442	0.468346
0	O	0.0266296	0.301172	0.395596
0	O	0.108789	0.261809	0.462273
0	C	0.0709556	0.328759	0.447919
0	C	0.0860286	0.297896	0.442185
0	H	0.0827562	0.331959	0.457286
0	O	0.0332391	0.357694	0.468565
0	O	0.0215574	0.260067	0.407252
0	O	0.975137	0.271881	0.435648
0	Fe	0.982413	0.309975	0.405726
0	H	0.973134	0.261122	0.470787
0	H	0.05987	0.29751	0.410975
0	H	0.987679	0.344095	0.417944
0	C	0.0578269	0.307922	0.422397
0	C	0.972657	0.29106	0.464448
0	O	0.102491	0.256176	0.404729
0	C	0.104818	0.308957	0.388744
0	C	0.982112	0.31302	0.490472
0	O	0.0864507	0.364518	0.408398
0	C	0.0994038	0.298988	0.370195
0	Fe	0.116282	0.287203	0.473797
0	F	0.0339761	0.272397	0.370172
0	Fe	0.0132899	0.367472	0.489752
0	H	0.115479	0.256952	0.398219
0	C	0.118147	0.299062	0.400828
0	C	0.119184	0.326228	0.423541
0	O	0.000235363	0.251484	0.370394
0	C	0.822541	0.125612	0.617025
0	C	0.861741	0.231536	0.615952
0	H	0.814452	0.14369	0.520121
0	H	0.845336	0.146776	0.613224
0	H	0.795651	0.154548	0.510312
0	C	0.790532	0.200421	0.601537
0	C	0.79155	0.188054	0.584363
0	H	0.937913	0.207911	0.509312
0	O	0.917007	0.126187	0.560466
0	H	0.920266	0.145648	0.50021
0	H	0.940461	0.22872	0.500845
0	C	0.873996	0.1252	0.599827
0	O	0.793045	0.21754	0.512776
0	C	0.90446	0.171366	0.506652
0	H	0.887154	0.194209	0.516206
0	Fe	0.818365	0.228327	0.52063
0	O	0.825094	0.206286	0.537232
0	Fe	0.81526	0.181014	0.529577
0	O	0.804418	0.15311	0.522916
0	O	0.843329	0.170833	0.527236
0	C	0.857756	0.174568	0.536888
0	O	0.85743	0.184188	0.552497
0	O	0.863301	0.219579	0.537865
0	C	0.860236	0.232881	0.525401
0	Fe	0.84315	0.210296	0.558589
0	F	0.861833	0.215019	0.578694
0	O	0.822737	0.200066	0.576965
0	C	0.809144	0.187852	0.572383
0	O	0.811071	0.174858	0.558488
0	O	0.829999	0.216316	0.497743
0	O	0.819303	0.185836	0.49992
0	Fe	0.908904	0.146449	0.582813
0	O	0.899447	0.162964	0.561167
0	O	0.935061	0.162399	0.583616
0	H	0.886624	0.16806	0.565265
0	H	0.90621	0.17526	0.562261
0	C	0.874908	0.237425	0.509421
0	C	0.908121	0.151642	0.508008
0	C	0.889937	0.179492	0.518181
0	C	0.893578	0.139085	0.515833
0	C	0.876127	0.167028	0.528718
0	C	0.877777	0.147016	0.526406
0	H	0.866843	0.137491	0.533046
0	H	0.803525	0.208698	0.605379
0	O	0.883778	0.130761	0.584415
0	O	0.918441	0.130197	0.603689
0	O	0.895437	0.166381	0.601226
0	C	0.840451	0.131895	0.60988
0	O	0.946726	0.215709	0.501276
0	O	0.831093	0.238001	0.565146
0	O	0.805515	0.238654	0.544991
0	O	0.844068	0.242421	0.525392
0	C	0.949623	0.242979	0.586153
0	O	0.881148	0.126148	0.617123
0	H	0.890049	0.206036	0.610922
0	O	0.876276	0.240514	0.608884
0	O	0.951919	0.135801	0.579288
0	C	0.95173	0.15399	0.582317
0	O	0.843547	0.239888	0.61581
0	O	0.787231	0.191326	0.530323
0	H	0.0891719	0.212308	0.497523
0	H	0.108494	0.217577	0.507314
0	O	0.956824	0.13051	0.619406
0	C	0.95356	0.241067	0.550924
0	H	0.0182986	0.161128	0.499765
0	O	0.954123	0.223445	0.542493
0	H	0.960392	0.230999	0.587474
0	O	0.103446	0.213567	0.495026
0	C	0.987526	0.16872	0.498226
0	O	0.0637981	0.124662	0.615764
0	O	0.0212759	0.134885	0.613077
0	C	0.0710469	0.126247	0.529836
0	C	0.0755492	0.127212	0.568661
0	O	0.0198178	0.210928	0.499823
0	C	0.00609943	0.160676	0.594993
0	O	0.0449166	0.193996	0.529602
0	H	0.0509502	0.199434	0.518206
0	C	0.00830056	0.180025	0.590058
0	H	0.0806221	0.139242	0.528031
0	O	0.0701137	0.142831	0.57697
0	O	0.0151153	0.206723	0.560152
0	O	0.972273	0.190244	0.519936
0	O	0.0346911	0.234333	0.528002
0	O	0.989612	0.225471	0.569629
0	O	0.994441	0.224233	0.53086
0	Fe	0.0178332	0.20911	0.529711
0	H	0.963319	0.19287	0.574566
0	O	0.00324356	0.18234	0.526824
0	H	0.0212189	0.187652	0.593204
0	C	0.97124	0.164134	0.584643
0	F	0.0130412	0.230162	0.609583
0	C	0.993768	0.191888	0.581626
0	H	0.0422074	0.180336	0.526782
0	H	0.984356	0.138259	0.592999
0	C	0.987222	0.152761	0.591624
0	C	0.974583	0.183779	0.580213
0	F	0.0742475	0.176999	0.598337
0	C	0.00027966	0.209893	0.570656
0	O	0.0405872	0.158069	0.601205
0	Fe	0.971572	0.220176	0.516609
0	C	0.987306	0.180225	0.516606
0	O	0.0990134	0.14867	0.613076
0	C	0.0238561	0.150128	0.603072
0	Fe	0.0695477	0.151805	0.606657
0	H	0.0723902	0.241744	0.530023
0	C	0.110705	0.135421	0.618292
0	H	0.845311	0.254992	0.610372
0	H	0.787362	0.352861	0.510276
0	C	0.900635	0.257256	0.495817
0	C	0.787473	0.278778	0.596515
0	C	0.941853	0.247274	0.567595
0	F	0.83916	0.35015	0.495306
0	H	0.834629	0.367842	0.58881
0	C	0.828365	0.299641	0.497699
0	C	0.814527	0.245575	0.559474
0	H	0.866513	0.362523	0.511197
0	C	0.915828	0.271711	0.498616
0	H	0.821386	0.255341	0.495895
0	H	0.80906	0.262475	0.514466
0	H	0.791832	0.322682	0.533568
0	O	0.921895	0.275817	0.515781
0	H	0.794129	0.272693	0.541449
0	C	0.841113	0.361033	0.600836
0	O	0.9003	0.359497	0.5168
0	O	0.810095	0.251965	0.504455
0	H	0.807385	0.25551	0.599577
0	C	0.888457	0.25195	0.51141
0	H	0.888233	0.262379	0.52418
0	C	0.80186	0.266156	0.589645
0	C	0.803938	0.262402	0.568782
0	O	0.922288	0.301095	0.557338
0	O	0.915131	0.312438	0.587067
0	C	0.920994	0.298164	0.575482
0	Fe	0.902888	0.340647	0.582118
0	O	0.92503	0.340093	0.515386
0	C	0.918517	0.356677	0.517158
0	O	0.929628	0.351267	0.581081
0	Fe	0.923178	0.322912	0.539083
0	O	0.903303	0.337435	0.553612
0	Fe	0.88319	0.350683	0.539602
0	O	0.877403	0.326408	0.582451
0	O	0.861346	0.348246	0.563899
0	C	0.863256	0.338532	0.579906
0	O	0.874438	0.325882	0.528686
0	O	0.944852	0.339554	0.553898
0	O	0.900955	0.307931	0.522833
0	C	0.944198	0.350645	0.569496
0	C	0.882089	0.310938	0.521901
0	C	0.853271	0.344683	0.598869
0	C	0.851011	0.295018	0.524401
0	C	0.832159	0.299089	0.517773
0	C	0.866831	0.298612	0.512156
0	H	0.852756	0.295082	0.539834
0	C	0.931041	0.264581	0.565664
0	C	0.938177	0.274276	0.598933
0	C	0.928119	0.277909	0.581305
0	H	0.922505	0.266485	0.552071
0	O	0.818294	0.308832	0.549595
0	C	0.8167	0.308005	0.530681
0	F	0.901123	0.343229	0.60864
0	C	0.948178	0.256596	0.601482
0	H	0.938727	0.284905	0.611286
0	O	0.800698	0.316201	0.521873
0	O	0.945703	0.30788	0.523419
0	H	0.85165	0.353292	0.52681
0	C	0.792865	0.274675	0.55687
0	O	0.861081	0.364055	0.524983
0	H	0.870668	0.324559	0.616472
0	C	0.860789	0.337354	0.616417
0	O	0.970627	0.249301	0.510706
0	O	0.0573902	0.366802	0.537138
0	H	0.957815	0.357109	0.513116
0	O	0.0567672	0.32794	0.522145
0	O	0.990777	0.335407	0.514401
0	C	0.0926588	0.353425	0.599404
0	O	0.967044	0.252219	0.547014
0	O	0.997395	0.262891	0.524527
0	C	0.0519094	0.356747	0.552023
0	H	0.103058	0.252375	0.616867
0	O	0.975813	0.244936	0.615913
0	C	0.0368434	0.245736	0.54253
0	O	0.0242861	0.246614	0.555644
0	Fe	0.995277	0.246217	0.548829
0	C	0.0441281	0.31455	0.527724
0	C	0.979104	0.367116	0.576279
0	C	0.0780544	0.27247	0.521625
0	O	0.0347575	0.349011	0.553103
0	H	0.0931233	0.363519	0.520199
0	O	0.0865174	0.354786	0.510318
0	O	0.0287384	0.354171	0.510235
0	H	0.0280947	0.283156	0.547112
0	C	0.0427985	0.280389	0.541125
0	H	0.954224	0.300211	0.532165
0	O	0.0260775	0.317583	0.529547
0	O	0.0962578	0.284315	0.494529
0	O	0.0969251	0.252373	0.501846
0	H	0.0902525	0.349924	0.549694
0	C	0.0529762	0.295793	0.532547
0	H	0.953168	0.319086	0.517449
0	F	0.994915	0.267126	0.565362
0	H	0.101699	0.357326	0.61119
0	C	0.0592305	0.353136	0.586974
0	C	0.0708711	0.291839	0.524441
0	O	0.996674	0.331034	0.554348
0	C	0.0990684	0.348436	0.580628
0	C	0.983864	0.262359	0.511054
0	C	0.0911985	0.269441	0.50511
0	C	0.980239	0.278685	0.496901
0	H	0.0793323	0.303448	0.517123
0	H	0.992671	0.317689	0.55085
0	H	0.986673	0.353895	0.574435
0	H	0.0441674	0.35532	0.588913
0	C	0.0654549	0.352572	0.567832
0	H	0.00713472	0.328495	0.564163
0	H	0.0909596	0.359354	0.497148
0	C	0.0734853	0.358276	0.601455
0	C	0.0852855	0.34917	0.565247
0	C	0.0689502	0.25748	0.532545
0	C	0.990432	0.331959	0.495871
0	Fe	0.0132233	0.343763	0.532159
0	C	0.0504502	0.261646	0.541529
0	C	0.983805	0.29748	0.502977
0	H	0.990256	0.300655	0.517713
0	Fe	0.0560933	0.355084	0.509946
0	C	0.957988	0.367169	0.573635
0	C	0.959876	0.25293	0.61915
0	O	0.116977	0.254789	0.61943
0	O	0.818329	0.172379	0.644486
0	C	0.832929	0.177142	0.65443
0	O	0.834453	0.171381	0.671693
0	O	0.824152	0.152473	0.707317
0	H	0.838641	0.152786	0.711189
0	Fe	0.825287	0.141894	0.678055
0	C	0.816211	0.132199	0.635432
0	O	0.93397	0.134694	0.642674
0	C	0.848185	0.204666	0.635158
0	C	0.850287	0.18706	0.644579
0	C	0.86621	0.175095	0.640459
0	Fe	0.907747	0.130659	0.629067
0	H	0.834338	0.213136	0.63641
0	O	0.82799	0.133022	0.649404
0	O	0.854719	0.136061	0.67968
0	O	0.798676	0.136824	0.636755
0	H	0.819926	0.166595	0.706929
0	O	0.797372	0.147744	0.674082
0	O	0.905431	0.159807	0.630798
0	C	0.880756	0.181687	0.627983
0	H	0.864567	0.159893	0.643891
0	O	0.893289	0.130553	0.655792
0	C	0.864519	0.2126	0.625891
0	O	0.930532	0.240632	0.665678
0	C	0.951441	0.136982	0.635951
0	H	0.856144	0.122563	0.675365
0	Fe	0.790617	0.159449	0.649728
0	H	0.813877	0.234669	0.665285
0	H	0.858287	0.135898	0.693712
0	H	0.792112	0.189742	0.671404
0	H	0.926326	0.231886	0.654562
0	C	0.880068	0.20061	0.621424
0	C	0.894505	0.168798	0.619663
0	H	0.902028	0.135754	0.665976
0	O	0.786221	0.153391	0.71608
0	O	0.0317896	0.123598	0.734797
0	H	0.954298	0.218579	0.685664
0	H	0.956363	0.171862	0.623071
0	H	0.101341	0.164015	0.678433
0	O	0.991827	0.211276	0.636906
0	C	0.982601	0.16324	0.672182
0	O	0.0436943	0.161911	0.725195
0	Fe	0.998129	0.182673	0.730483
0	H	0.997993	0.218358	0.736823
0	O	0.978031	0.150673	0.703046
0	C	0.0464259	0.168036	0.681892
0	O	0.0665264	0.162639	0.634229
0	C	0.0382829	0.201237	0.690582
0	H	0.977311	0.21246	0.730957
0	C	0.964917	0.169054	0.636082
0	O	0.00439437	0.15639	0.734911
0	O	0.0269858	0.227852	0.646296
0	O	0.96016	0.216205	0.645561
0	H	0.0463439	0.196378	0.641109
0	C	0.0459176	0.193134	0.656486
0	C	0.0818387	0.210842	0.703702
0	O	0.0267636	0.189034	0.727712
0	C	0.0502189	0.174563	0.66269
0	H	0.0822646	0.197543	0.712356
0	H	0.991663	0.193591	0.669549
0	O	0.0956682	0.175043	0.687806
0	C	0.0757261	0.230427	0.733219
0	C	0.986507	0.163058	0.69301
0	O	0.990889	0.211203	0.726885
0	Fe	0.986713	0.135955	0.727743
0	C	0.087725	0.22656	0.673639
0	Fe	0.00120393	0.238426	0.632869
0	C	0.972729	0.148297	0.661825
0	C	0.974495	0.184799	0.646153
0	O	0.0237988	0.236229	0.677917
0	H	0.0920295	0.22577	0.658514
0	C	0.984803	0.180952	0.663113
0	C	0.0769638	0.228552	0.712082
0	C	0.0391903	0.206873	0.670494
0	O	0.996386	0.176976	0.700234
0	C	0.0380141	0.177376	0.717678
0	O	0.967081	0.22536	0.68556
0	C	0.0871543	0.209106	0.684433
0	H	0.0349454	0.211819	0.70157
0	C	0.0295339	0.224502	0.664646
0	C	0.0534016	0.160092	0.647708
0	C	0.974487	0.204837	0.640449
0	O	0.96881	0.177841	0.732604
0	O	0.042487	0.14488	0.647849
0	C	0.0420364	0.182439	0.696597
0	H	0.971783	0.1341	0.669698
0	C	0.0934673	0.1912	0.676294
0	C	0.963738	0.151237	0.644696
0	H	0.0476146	0.152832	0.686846
0	O	0.0987065	0.190884	0.658583
0	Fe	0.962028	0.242869	0.661581
0	H	0.00105761	0.241747	0.710663
0	O	0.0837954	0.21863	0.744298
0	C	0.959789	0.164862	0.741906
0	O	0.00785918	0.120916	0.713337
0	Fe	0.0392832	0.119714	0.63212
0	H	0.0105781	0.125955	0.655083
0	H	0.960754	0.120822	0.708087
0	H	0.927143	0.252755	0.659132
0	C	0.786868	0.330329	0.713325
0	C	0.786905	0.260852	0.744219
0	H	0.817572	0.255836	0.666599
0	O	0.812787	0.246316	0.657014
0	Fe	0.869351	0.350502	0.72412
0	O	0.842635	0.344069	0.7111
0	C	0.836109	0.328583	0.701954
0	O	0.84671	0.314713	0.696152
0	O	0.865372	0.326605	0.663204
0	C	0.86986	0.340622	0.652106
0	O	0.879714	0.341943	0.699643
0	Fe	0.875649	0.315922	0.689324
0	O	0.873948	0.322652	0.737743
0	O	0.873223	0.287947	0.677256
0	O	0.884172	0.301701	0.71506
0	C	0.881003	0.306028	0.733075
0	O	0.905378	0.316142	0.682344
0	O	0.91767	0.346196	0.684899
0	C	0.918129	0.328284	0.688625
0	H	0.885098	0.279476	0.675583
0	H	0.864405	0.280422	0.68631
0	O	0.808756	0.319086	0.735857
0	F	0.829942	0.288561	0.722641
0	H	0.855198	0.280066	0.736822
0	C	0.809486	0.311277	0.68464
0	C	0.815872	0.327833	0.695642
0	H	0.818254	0.302712	0.673817
0	H	0.930689	0.335888	0.724551
0	C	0.935407	0.320823	0.697524
0	C	0.858384	0.346754	0.634457
0	C	0.802361	0.339627	0.704793
0	H	0.807916	0.351278	0.713056
0	C	0.791987	0.323446	0.732571
0	C	0.940367	0.325583	0.71656
0	H	0.941536	0.300595	0.674809
0	Fe	0.893004	0.361811	0.683686
0	O	0.883761	0.352026	0.656756
0	C	0.945863	0.306088	0.688232
0	C	0.847216	0.363201	0.635615
0	O	0.896656	0.358726	0.733197
0	O	0.792814	0.276212	0.734715
0	O	0.791583	0.270476	0.630801
0	C	0.790269	0.305283	0.687398
0	H	0.941749	0.3682	0.739489
0	O	0.786601	0.272987	0.675972
0	H	0.0713372	0.363102	0.672393
0	O	0.0652297	0.244663	0.739255
0	C	0.0850248	0.24494	0.682166
0	C	0.0800362	0.245437	0.70129
0	O	0.990764	0.245557	0.701495
0	O	0.989379	0.246656	0.656875
0	O	0.953601	0.258001	0.636387
0	O	0.11514	0.335774	0.671236
0	H	0.984843	0.255444	0.707831
0	O	0.960103	0.267817	0.680523
0	C	0.0827575	0.302677	0.63716
0	H	0.0155973	0.276808	0.709094
0	O	0.09224	0.286807	0.633052
0	O	0.989479	0.282572	0.680029
0	H	0.107351	0.295498	0.735105
0	H	0.0645337	0.337661	0.633429
0	Fe	0.00606138	0.258462	0.677335
0	C	0.0283941	0.34882	0.640442
0	O	0.105748	0.258487	0.660395
0	C	0.0497745	0.289803	0.629698
0	O	0.0123752	0.264554	0.627696
0	O	0.0214262	0.273937	0.657549
0	H	0.00724639	0.313701	0.637417
0	C	0.0348461	0.328645	0.633653
0	C	0.054901	0.325578	0.630913
0	C	0.09244	0.262612	0.672471
0	O	0.0243596	0.271574	0.698408
0	O	0.0418414	0.35721	0.650134
0	C	0.968552	0.304118	0.715242
0	H	0.98151	0.29742	0.721149
0	Fe	0.102353	0.308064	0.674163
0	C	0.962709	0.298422	0.69602
0	C	0.0299537	0.293118	0.632231
0	C	0.957118	0.317434	0.726237
0	C	0.0196093	0.276453	0.63939
0	H	0.0315753	0.261523	0.704999
0	C	0.062106	0.306233	0.629974
0	O	0.0118327	0.356964	0.636338
0	C	0.971225	0.281941	0.684914
0	O	0.0905603	0.315469	0.647628
0	H	0.0761834	0.259529	0.707543
0	C	0.0227704	0.312435	0.63378
0	O	0.0877479	0.280599	0.677076
0	F	0.0820495	0.319599	0.687893
0	O	0.113354	0.302285	0.701003
0	H	0.0553745	0.275272	0.62996
0	H	0.0601995	0.283925	0.732556
0	Fe	0.119203	0.275549	0.642159
0	O	0.811373	0.124028	0.843892
0	Fe	0.872917	0.119805	0.794149
0	C	0.934927	0.146103	0.862436
0	H	0.800356	0.23802	0.795574
0	H	0.929449	0.141898	0.748361
0	C	0.927465	0.155811	0.754327
0	O	0.923437	0.202842	0.850606
0	O	0.901946	0.197168	0.827569
0	C	0.913794	0.170916	0.847355
0	C	0.912253	0.191308	0.841463
0	Fe	0.93798	0.226796	0.846912
0	O	0.924808	0.231604	0.8223
0	Fe	0.897828	0.225752	0.81796
0	O	0.868406	0.219564	0.813108
0	O	0.936078	0.221971	0.78396
0	C	0.908113	0.177956	0.773957
0	C	0.9118	0.15926	0.766276
0	C	0.920968	0.211142	0.782186
0	C	0.92234	0.192242	0.771126
0	C	0.938044	0.188522	0.758315
0	O	0.904577	0.215725	0.790033
0	O	0.890411	0.23386	0.846216
0	H	0.895474	0.181686	0.781521
0	H	0.888691	0.159822	0.832224
0	H	0.867301	0.205955	0.816956
0	H	0.865252	0.221313	0.799284
0	C	0.941284	0.170081	0.751114
0	C	0.901699	0.156355	0.840428
0	C	0.89971	0.142483	0.77146
0	O	0.892291	0.140639	0.787962
0	O	0.802359	0.232252	0.849438
0	O	0.850162	0.138857	0.79939
0	O	0.899539	0.127806	0.759327
0	C	0.905999	0.136666	0.843535
0	H	0.843703	0.143674	0.787552
0	H	0.855991	0.151256	0.804743
0	C	0.924024	0.131864	0.853423
0	O	0.881787	0.126565	0.822676
0	C	0.897356	0.121765	0.831182
0	H	0.791602	0.225007	0.843195
0	C	0.931157	0.165665	0.856784
0	H	0.813676	0.223206	0.84877
0	H	0.949697	0.198919	0.756131
0	C	0.899556	0.240007	0.861471
0	O	0.917881	0.241578	0.862895
0	H	0.858434	0.243744	0.865694
0	O	0.787641	0.1472	0.837709
0	C	0.800757	0.138392	0.849992
0	H	0.942079	0.17574	0.860375
0	C	0.805466	0.148695	0.868753
0	H	0.787046	0.138487	0.823676
0	H	0.0121731	0.122189	0.806596
0	O	0.966223	0.14809	0.744925
0	C	0.119488	0.178761	0.832191
0	O	0.0132402	0.119644	0.840611
0	H	0.0655949	0.130602	0.857092
0	C	0.000704092	0.12463	0.768377
0	H	0.113885	0.209395	0.831061
0	Fe	0.0280451	0.134162	0.862456
0	O	0.0677219	0.135004	0.808266
0	C	0.0852632	0.137842	0.81689
0	O	0.0279322	0.176332	0.765251
0	C	0.0793339	0.210068	0.81401
0	O	0.0480042	0.217592	0.766805
0	O	0.0145168	0.136363	0.770999
0	C	0.0118644	0.184006	0.771054
0	C	0.0801779	0.174608	0.822119
0	Fe	0.0769456	0.213595	0.771957
0	C	0.00849357	0.183512	0.82658
0	C	0.0877204	0.193031	0.824411
0	C	0.970322	0.218981	0.818909
0	F	0.0751094	0.188315	0.766288
0	C	0.0924335	0.158144	0.822728
0	C	0.995476	0.204928	0.795423
0	O	0.05449	0.132479	0.847857
0	C	0.00879441	0.169927	0.843127
0	C	0.996702	0.199507	0.829363
0	H	0.0259539	0.168213	0.804032
0	H	0.0471238	0.210549	0.754413
0	H	0.992093	0.204095	0.844263
0	C	0.106863	0.195006	0.830081
0	O	0.959237	0.212092	0.831768
0	O	0.966591	0.235114	0.810945
0	C	0.988574	0.208765	0.814488
0	O	0.0891816	0.225395	0.815854
0	O	0.0242905	0.160437	0.847169
0	C	0.0160876	0.179288	0.807764
0	H	0.988952	0.214248	0.783896
0	C	0.00907649	0.190048	0.791611
0	O	0.0685479	0.207125	0.799485
0	O	0.998146	0.187437	0.759194
0	H	0.0646687	0.172599	0.818354
0	Fe	0.0290904	0.150401	0.749259
0	C	0.1112	0.160657	0.829772
0	O	0.10665	0.207209	0.777334
0	O	0.99326	0.16854	0.854166
0	F	0.0516275	0.144569	0.762418
0	O	0.0786251	0.241299	0.77904
0	O	0.11911	0.235981	0.788173
0	O	0.0973256	0.123781	0.81883
0	O	0.994736	0.120169	0.751862
0	H	0.799756	0.341518	0.829571
0	H	0.794676	0.355167	0.780758
0	O	0.792105	0.248086	0.802032
0	O	0.792914	0.256219	0.760801
0	O	0.802374	0.366028	0.852021
0	Fe	0.81675	0.292423	0.745767
0	C	0.798973	0.309347	0.833483
0	C	0.795058	0.297817	0.866573
0	F	0.859295	0.357971	0.747991
0	H	0.891194	0.356237	0.819804
0	Fe	0.939351	0.245981	0.801594
0	O	0.800154	0.286926	0.808107
0	C	0.881213	0.289311	0.748403
0	C	0.864127	0.278268	0.74983
0	C	0.801088	0.351999	0.865193
0	O	0.891855	0.253572	0.809307
0	C	0.899537	0.262806	0.794528
0	O	0.915937	0.257249	0.787919
0	O	0.940463	0.270213	0.820236
0	C	0.943438	0.266985	0.838651
0	C	0.837097	0.266736	0.769362
0	O	0.839281	0.30812	0.759884
0	O	0.819785	0.331448	0.770559
0	C	0.836538	0.323045	0.770189
0	O	0.920565	0.325898	0.786561
0	C	0.910592	0.34062	0.79325
0	C	0.869146	0.26969	0.783027
0	C	0.88768	0.275744	0.782032
0	C	0.894221	0.28677	0.764894
0	C	0.857849	0.269465	0.767104
0	H	0.863039	0.264701	0.796742
0	H	0.908351	0.292447	0.763921
0	C	0.874341	0.331226	0.781208
0	C	0.853233	0.331813	0.783085
0	C	0.846493	0.342757	0.799711
0	C	0.887506	0.341044	0.793812
0	H	0.882104	0.321688	0.771187
0	C	0.929298	0.299021	0.849915
0	C	0.938671	0.280993	0.854427
0	C	0.940652	0.315199	0.852707
0	H	0.919396	0.299501	0.836953
0	C	0.880994	0.350803	0.809498
0	O	0.919921	0.354537	0.80173
0	F	0.938699	0.290589	0.788952
0	C	0.860445	0.35264	0.813278
0	O	0.827426	0.266937	0.753961
0	O	0.827877	0.268004	0.785657
0	H	0.83165	0.344274	0.803587
0	C	0.80054	0.305489	0.812623
0	C	0.795925	0.331949	0.85906
0	O	0.801655	0.295591	0.768698
0	Fe	0.79748	0.271989	0.784161
0	Fe	0.949271	0.3163	0.790201
0	O	0.800972	0.31906	0.800649
0	C	0.945662	0.324977	0.834219
0	Fe	0.94839	0.362036	0.810673
0	Fe	0.792516	0.320166	0.773785
0	O	0.946947	0.314121	0.819389
0	C	0.797343	0.328353	0.839348
0	C	0.796574	0.293975	0.846774
0	C	0.854211	0.3638	0.830315
0	O	0.947461	0.342798	0.833654
0	O	0.951278	0.315408	0.759874
0	H	0.794528	0.279188	0.84097
0	O	0.836083	0.367764	0.830777
0	O	0.952489	0.251724	0.843876
0	F	0.952502	0.259505	0.781609
0	O	0.866172	0.369246	0.844023
0	H	0.00403067	0.364412	0.750615
0	O	0.115124	0.306904	0.837554
0	O	0.112519	0.25902	0.822724
0	C	0.107364	0.274266	0.764664
0	H	0.114773	0.248184	0.831864
0	O	0.0534775	0.284255	0.745679
0	C	0.008489	0.297621	0.80688
0	O	0.00941219	0.357812	0.761608
0	H	0.032889	0.247824	0.75836
0	H	0.093262	0.349225	0.809141
0	C	0.953644	0.31468	0.868735
0	O	0.0131929	0.266072	0.86879
0	C	0.018143	0.28283	0.838317
0	O	0.0901199	0.361909	0.803838
0	H	0.0992013	0.363177	0.793061
0	Fe	0.984673	0.348998	0.777585
0	O	0.997263	0.362079	0.801151
0	H	0.027578	0.264217	0.771977
0	C	0.0607806	0.275732	0.803211
0	H	0.11422	0.309068	0.803062
0	O	0.106694	0.27331	0.783273
0	O	0.999921	0.323602	0.785703
0	C	0.035669	0.277146	0.829813
0	O	0.97613	0.304885	0.79682
0	C	0.00447324	0.293078	0.826789
0	C	0.0274507	0.293117	0.799691
0	O	0.0382141	0.254289	0.770284
0	O	0.0954313	0.364132	0.847261
0	H	0.0284595	0.295345	0.784562
0	O	0.0720957	0.264533	0.813185
0	H	0.991523	0.298608	0.833361
0	O	0.960557	0.342636	0.792266
0	H	0.0168384	0.347015	0.755738
0	O	0.975148	0.335815	0.751511
0	Fe	0.0662286	0.26161	0.763024
0	O	0.0666535	0.280573	0.786249
0	C	0.0965044	0.36363	0.866288
0	H	0.056136	0.296316	0.752382
0	O	0.0932209	0.269411	0.754113
0	Fe	0.0955805	0.249449	0.799787
0	C	0.0411391	0.282231	0.811004
0	C	0.994365	0.309472	0.795818
0	C	0.0161737	0.283007	0.860352
0	C	0.962074	0.323351	0.747301
0	H	0.0460376	0.270005	0.838472
0	O	0.0155367	0.299671	0.86931
0	C	0.876461	0.190834	0.974492
0	O	0.890991	0.19003	0.962852
0	O	0.898765	0.221241	0.937693
0	O	0.902614	0.226684	0.978858
0	Fe	0.915284	0.208737	0.960755
0	O	0.92831	0.190498	0.940088
0	O	0.929105	0.192436	0.980609
0	O	0.94002	0.22783	0.962762
0	H	0.917538	0.185703	0.932054
0	O	0.885018	0.158946	0.936611
0	O	0.861683	0.137126	0.964789
0	C	0.843846	0.138154	0.968686
0	H	0.891711	0.159509	0.924311
0	H	0.874519	0.168499	0.93419
0	C	0.814774	0.167413	0.904471
0	C	0.824348	0.149902	0.899642
0	H	0.817583	0.172919	0.918868
0	C	0.917772	0.150087	0.979789
0	H	0.910754	0.157684	0.968145
0	C	0.838695	0.15162	0.985447
0	C	0.86554	0.173234	0.978629
0	C	0.844976	0.170717	0.979461
0	H	0.836099	0.178681	0.969597
0	C	0.914231	0.129683	0.982365
0	H	0.838445	0.231863	0.956356
0	O	0.873742	0.202636	0.988476
0	C	0.8357	0.137539	0.913924
0	H	0.935927	0.19802	0.930203
0	O	0.823679	0.231946	0.887586
0	C	0.820529	0.141824	0.88097
0	Fe	0.79475	0.236664	0.878559
0	Fe	0.871902	0.131763	0.939169
0	O	0.847556	0.144649	0.926152
0	C	0.800742	0.175378	0.892427
0	O	0.790392	0.207116	0.881218
0	C	0.810759	0.237772	0.967477
0	C	0.792231	0.195201	0.89585
0	O	0.83087	0.128989	0.958144
0	C	0.896847	0.239099	0.93374
0	C	0.800846	0.237455	0.948133
0	H	0.943808	0.221564	0.88377
0	C	0.831152	0.237911	0.968967
0	C	0.876465	0.162301	0.991361
0	C	0.862568	0.244401	0.986317
0	H	0.911902	0.237023	0.897271
0	C	0.795732	0.165426	0.874938
0	H	0.879739	0.13497	0.901669
0	O	0.786474	0.242007	0.904873
0	C	0.943436	0.243199	0.972736
0	H	0.856961	0.242643	0.926802
0	O	0.881984	0.124165	0.910845
0	C	0.886236	0.243146	0.914905
0	C	0.896463	0.24081	0.897207
0	O	0.898465	0.125699	0.952152
0	C	0.866476	0.24361	0.878968
0	C	0.887123	0.243244	0.879353
0	O	0.787735	0.200115	0.913199
0	H	0.82702	0.128723	0.87708
0	C	0.953111	0.142205	0.873004
0	O	0.95333	0.22045	0.872862
0	O	0.95956	0.12425	0.873184
0	Fe	0.0993214	0.151031	0.955046
0	C	0.0555751	0.138587	0.96381
0	O	0.962832	0.15612	0.879326
0	O	0.0026804	0.135534	0.874936
0	H	0.0628669	0.224441	0.937603
0	H	0.0385129	0.205999	0.883999
0	O	0.103447	0.143455	0.92596
0	C	0.00414823	0.132348	0.938844
0	O	0.988587	0.236434	0.88782
0	F	0.984882	0.185266	0.891686
0	C	0.0426954	0.236673	0.906215
0	O	0.993672	0.151597	0.911098
0	C	0.0240536	0.137664	0.941118
0	Fe	0.992709	0.160581	0.882023
0	C	0.0362421	0.166356	0.891062
0	O	0.0413315	0.149565	0.885573
0	C	0.0351317	0.132085	0.957284
0	C	0.992364	0.13562	0.92025
0	O	0.0257841	0.238767	0.89947
0	C	0.0602119	0.212198	0.92741
0	H	0.0315597	0.144765	0.929815
0	O	0.0707914	0.138235	0.952058
0	C	0.0620771	0.191791	0.932483
0	Fe	0.0937086	0.185967	0.989215
0	H	0.0607547	0.162448	0.922495
0	C	0.0508462	0.217093	0.909084
0	C	0.0486914	0.181576	0.900673
0	C	0.0465016	0.201891	0.896131
0	O	0.0940474	0.157895	0.982146
0	C	0.056662	0.177161	0.918919
0	O	0.0571223	0.141572	0.982379
0	C	0.0740884	0.185133	0.949454
0	O	0.0192089	0.172083	0.886178
0	O	0.0723766	0.191049	0.967525
0	O	0.0868065	0.173889	0.944326
0	O	0.11462	0.195504	0.968097
0	O	0.11278	0.124066	0.962687
0	H	0.992207	0.224984	0.895586
0	C	0.994244	0.124625	0.955091
0	H	0.113867	0.151298	0.920079
0	H	0.108297	0.129644	0.926223
0	H	0.977916	0.123299	0.9545
0	H	0.95645	0.206288	0.873461
0	C	0.0263753	0.120521	0.971019
0	O	0.983573	0.120804	0.912224
0	H	0.991686	0.234077	0.873759
0	C	0.0051537	0.120843	0.972625
0	C	0.841461	0.245714	0.98543
0	C	0.800535	0.245301	0.983868
0	C	0.948098	0.279901	0.871976
0	O	0.786465	0.28313	0.896496
0	C	0.865459	0.245669	0.914297
0	C	0.855664	0.246193	0.896274
0	O	0.808739	0.248541	0.93671
0	C	0.833502	0.245586	0.896369
0	O	0.872263	0.25183	0.972061
0	O	0.904735	0.252126	0.94407
0	Fe	0.901481	0.254528	0.973746
0	O	0.901639	0.283556	0.96815
0	O	0.930232	0.255512	0.976018
0	H	0.89025	0.288148	0.974922
0	H	0.912999	0.288501	0.976848
0	O	0.825086	0.260536	0.903733
0	H	0.835859	0.348403	0.903859
0	F	0.808347	0.286954	0.927998
0	O	0.807993	0.353343	0.882336
0	O	0.863576	0.353493	0.880519
0	Fe	0.797314	0.26555	0.916744
0	C	0.79399	0.281299	0.880006
0	O	0.839957	0.361423	0.908145
0	H	0.951393	0.266119	0.877338
0	H	0.798539	0.319363	0.887862
0	H	0.83551	0.360383	0.922354
0	O	0.800938	0.265784	0.873174
0	H	0.876411	0.348469	0.876782
0	C	0.795582	0.316879	0.872849
0	H	0.803992	0.361966	0.923699
0	H	0.118229	0.293197	0.95926
0	C	0.0119108	0.365614	0.969884
0	H	0.968543	0.246204	0.94531
0	C	0.974323	0.25185	0.958268
0	C	0.963481	0.249658	0.974925
0	C	0.0766502	0.335676	0.883689
0	O	0.0108546	0.315881	0.927869
0	H	0.0137123	0.273796	0.976861
0	H	0.0867153	0.339404	0.954382
0	C	0.0295167	0.346164	0.947425
0	F	0.00795551	0.334592	0.892617
0	C	0.0582513	0.308507	0.900312
0	O	0.98125	0.275751	0.892408
0	O	0.985053	0.307205	0.898338
0	C	0.0142777	0.33195	0.9759
0	O	0.996206	0.256979	0.925246
0	C	0.992539	0.260423	0.958827
0	C	0.975366	0.293336	0.890451
0	O	0.0195599	0.282364	0.905575
0	O	0.0599561	0.292975	0.9108
0	C	0.111193	0.340426	0.890916
0	H	0.0936243	0.300377	0.914932
0	H	0.0377902	0.345054	0.933841
0	Fe	0.0139961	0.308479	0.898608
0	C	0.110362	0.325105	0.904936
0	C	0.0793095	0.319153	0.973291
0	C	0.956743	0.296512	0.878619
0	C	0.0823684	0.306749	0.990631
0	C	0.00929313	0.350841	0.982634
0	C	0.0049255	0.258861	0.941601
0	O	0.0629478	0.319565	0.965618
0	C	0.0934867	0.313781	0.905562
0	O	0.0936571	0.330489	0.965326
0	O	0.0417931	0.31547	0.895901
0	Fe	0.00456319	0.260263	0.897101
0	H	0.054802	0.292681	0.988063
0	O	0.0231208	0.262478	0.942933
0	C	5.05797e-05	0.26668	0.976524
0	C	0.0216019	0.312895	0.942895
0	H	0.0107769	0.320368	0.984637
0	O	0.0644231	0.272312	0.943314
0	O	0.0519967	0.251923	0.911293
0	O	0.0341886	0.300228	0.943462
0	C	0.0768604	0.319294	0.894814
0	C	0.0231545	0.329314	0.957076
0	H	0.0740832	0.282818	0.942362
0	Fe	0.0407709	0.277113	0.925081
0	H	0.0713716	0.260022	0.940325
0	C	0.0218281	0.362769	0.952341
0	C	0.0946817	0.345936	0.879448
0	C	0.971422	0.256255	0.992803
0	H	0.97232	0.313071	0.981022
0	O	0.96279	0.303263	0.989023
0	C	0.98938	0.266545	0.99395
0	H	0.0633593	0.339999	0.876127
0	H	0.964031	0.32596	0.870741
0	C	0.921864	0.183587	0.995171
0	C	0.925239	0.161427	0.99595
0	H	0.895169	0.21741	0.110884
0	H	0.828673	0.12006	0.0622908
0	H	0.890172	0.166891	0.995023
0	O	0.918959	0.127444	0.0529176
0	O	0.794146	0.237949	0.0690306
0	H	0.839586	0.141246	0.0160393
0	C	0.848016	0.14677	0.00356731
0	O	0.869216	0.174386	0.0345363
0	O	0.887937	0.149273	0.0347424
0	C	0.875523	0.159214	0.0257706
0	Fe	0.857397	0.169454	0.0599352
0	O	0.882672	0.168031	0.0716131
0	F	0.832246	0.17043	0.0472528
0	Fe	0.900764	0.148699	0.0624705
0	O	0.843987	0.164234	0.0848516
0	O	0.921144	0.170598	0.0555415
0	C	0.928438	0.182224	0.0670731
0	O	0.918654	0.188221	0.0818437
0	O	0.911852	0.143713	0.0906386
0	O	0.857139	0.139796	0.0543942
0	Fe	0.88931	0.185667	0.0925254
0	O	0.853155	0.198893	0.0652668
0	O	0.881566	0.208676	0.076061
0	C	0.863699	0.2121	0.0719624
0	Fe	0.892578	0.217865	0.00341152
0	O	0.909647	0.192952	0.00509578
0	F	0.883304	0.210173	0.0282478
0	C	0.83296	0.232234	0.0752218
0	C	0.853561	0.23065	0.075977
0	C	0.934532	0.151616	0.0122433
0	C	0.934147	0.130041	0.0126975
0	C	0.867479	0.153544	0.00667507
0	O	0.912309	0.236558	0.0169871
0	H	0.941879	0.160482	0.0238261
0	C	0.845802	0.172907	0.100626
0	H	0.811085	0.152354	0.095318
0	H	0.825551	0.219055	0.0715067
0	C	0.905119	0.14731	0.107396
0	O	0.860728	0.184202	0.104079
0	O	0.896008	0.163218	0.11046
0	O	0.881875	0.128984	0.0711958
0	C	0.812938	0.159034	0.109416
0	C	0.865551	0.126114	0.06343
0	C	0.829179	0.170771	0.114194
0	O	0.870603	0.238398	0.00239449
0	H	0.801281	0.140352	0.0301215
0	O	0.809583	0.127119	0.0260219
0	C	0.950141	0.185152	0.0652576
0	F	0.792007	0.217985	0.0352633
0	H	0.879961	0.244484	0.0872116
0	O	0.896695	0.204231	0.115867
0	C	0.92292	0.119852	0.998655
0	H	0.909072	0.119872	0.0462246
0	H	0.965549	0.128793	0.0967018
0	O	0.960939	0.190615	0.115918
0	H	0.106712	0.125618	0.0226679
0	Fe	0.0135913	0.120402	0.0347337
0	F	0.0916364	0.211969	0.996142
0	H	0.0890612	0.217192	0.107002
0	H	0.953219	0.216118	0.0718221
0	H	0.9546	0.154521	0.0603149
0	O	0.957148	0.123038	0.086409
0	H	0.00869374	0.232124	0.113952
0	O	0.114724	0.183071	0.0101014
0	O	0.954867	0.126845	0.040587
0	O	0.000397378	0.147569	0.0356433
0	C	0.979616	0.20589	0.061177
0	C	0.0613099	0.174486	0.08304
0	H	0.0778089	0.154301	0.0651685
0	Fe	0.0826782	0.13633	0.997433
0	C	0.0657771	0.17186	0.104875
0	C	0.0691567	0.16774	0.0647339
0	O	0.0737097	0.182443	0.0118101
0	C	0.961241	0.169056	0.0599406
0	C	0.0436331	0.224807	0.0672461
0	O	0.00710267	0.223888	0.050643
0	F	0.0371484	0.132808	0.030766
0	H	0.0655656	0.208722	0.0375228
0	C	0.989868	0.18859	0.0539413
0	H	0.0045803	0.189251	0.0506268
0	O	0.109194	0.12969	0.00881889
0	O	0.988976	0.239733	0.0731965
0	C	0.992125	0.224374	0.0619189
0	O	0.0301321	0.229199	0.0803647
0	C	0.980748	0.170513	0.0538327
0	O	0.0781785	0.152527	0.0231686
0	C	0.0684365	0.177783	0.046742
0	O	0.989951	0.13956	0.0643875
0	C	0.0493472	0.191225	0.0811521
0	O	0.0480143	0.236278	0.0533563
0	C	0.0509344	0.20462	0.0657908
0	C	0.991124	0.152191	0.0509914
0	H	0.0227829	0.212443	0.0198458
0	O	0.0315088	0.222788	0.0167867
0	H	0.0407963	0.197569	0.0932938
0	C	0.0731906	0.170129	0.0261584
0	C	0.960027	0.203639	0.0668256
0	H	0.0255598	0.227562	0.00502921
0	C	0.0627302	0.197981	0.0490459
0	O	0.070725	0.187119	0.113004
0	Fe	0.0247088	0.24446	0.0379601
0	O	0.0597544	0.157119	0.115123
0	O	0.00879199	0.122074	0.00622566
0	H	0.117	0.194256	0.0191484
0	H	0.0721356	0.230449	0.115537
0	H	0.11494	0.142937	0.0103639
0	C	0.823445	0.249781	0.0806447
0	C	0.802025	0.25123	0.0780126
0	H	0.89657	0.361478	0.0450734
0	C	0.788819	0.327898	0.0647015
0	C	0.86418	0.24649	0.0837268
0	H	0.940702	0.274144	0.000679939
0	C	0.794987	0.367374	0.0251697
0	O	0.858331	0.352185	0.113803
0	O	0.802376	0.256866	0.032421
0	O	0.885241	0.364131	0.0992754
0	H	0.829977	0.360521	0.0429271
0	O	0.792118	0.265126	0.0848953
0	C	0.830653	0.2525	0.00136835
0	H	0.838182	0.256777	0.0141182
0	O	0.898119	0.260376	0.0010612
0	C	0.910569	0.255187	0.0132924
0	Fe	0.902458	0.303585	0.0980957
0	O	0.912066	0.306004	0.0712006
0	C	0.90405	0.31172	0.0556495
0	O	0.883103	0.282927	0.0876453
0	O	0.882679	0.323429	0.0943941
0	O	0.921389	0.323472	0.108321
0	C	0.929875	0.333394	0.0950409
0	C	0.8659	0.28134	0.0948178
0	C	0.833867	0.265907	0.0875558
0	C	0.854297	0.264043	0.089276
0	C	0.809947	0.253797	0.999616
0	C	0.933998	0.281309	0.0129379
0	C	0.908841	0.281998	0.0367538
0	C	0.936948	0.301701	0.0147515
0	C	0.910533	0.301956	0.0385049
0	C	0.924428	0.312265	0.0274006
0	C	0.919579	0.271614	0.0232618
0	H	0.896769	0.27552	0.0443062
0	C	0.818144	0.351233	0.0486105
0	C	0.822419	0.339906	0.0654239
0	O	0.858875	0.293161	0.107814
0	Fe	0.860386	0.323024	0.110048
0	O	0.843994	0.323638	0.085914
0	H	0.811537	0.31657	0.0826911
0	O	0.919206	0.341272	0.0822733
0	C	0.842858	0.337399	0.0741603
0	C	0.798917	0.262857	0.0157432
0	O	0.890669	0.323682	0.0556209
0	C	0.807669	0.327201	0.0721357
0	Fe	0.888124	0.343582	0.0771708
0	H	0.827121	0.280243	0.0887579
0	O	0.85814	0.347989	0.0704017
0	H	0.925492	0.32822	0.0289887
0	C	0.799107	0.352937	0.0408625
0	F	0.921258	0.284424	0.101598
0	C	0.871072	0.365378	0.111433
0	C	0.951272	0.331595	0.09064
0	O	0.893954	0.366611	0.0581661
0	C	0.952607	0.313386	0.00323165
0	C	0.0997801	0.30903	0.00100974
0	C	0.960508	0.347272	0.0803798
0	H	0.101433	0.358518	0.0597374
0	C	0.0681287	0.293828	0.997084
0	O	0.974332	0.366215	0.0481064
0	C	0.118604	0.304214	0.0309488
0	O	0.00816356	0.2464	0.113124
0	C	0.961315	0.313759	0.0929185
0	H	0.953596	0.361419	0.0780035
0	H	0.953561	0.3022	0.0982756
0	C	0.0429786	0.289253	0.0916545
0	O	0.107915	0.357807	0.0474458
0	C	0.986811	0.359948	0.0603727
0	Fe	0.0133765	0.25548	0.083898
0	F	0.0420502	0.357032	0.0473355
0	O	0.0188844	0.263231	0.0573891
0	C	0.980645	0.312443	0.0867991
0	C	0.069455	0.285136	0.0148892
0	H	0.00462387	0.327314	0.0742515
0	O	0.110224	0.323045	0.0688842
0	H	0.993583	0.247449	0.113201
0	O	0.0428357	0.263305	0.0221284
0	C	0.0521133	0.278965	0.0260343
0	C	0.989394	0.293777	0.0794894
0	C	0.0768732	0.301247	0.0895702
0	O	0.953127	0.332501	0.00399655
0	H	0.098754	0.350547	0.0389321
0	H	0.111577	0.319242	0.995176
0	C	0.1118	0.310933	0.0829901
0	O	0.00101435	0.251325	0.0221416
0	H	0.0756076	0.29602	0.0750041
0	C	0.00361697	0.357261	0.00314412
0	C	0.0611878	0.299513	0.101677
0	C	0.0872535	0.2881	0.0257351
0	Fe	0.0204566	0.290087	0.0508993
0	O	0.0385442	0.271353	0.0939513
0	O	0.0341128	0.299337	0.0777877
0	O	0.0472553	0.289269	0.0400625
0	H	0.965082	0.251957	0.0069557
0	C	0.102549	0.298747	0.0180409
0	H	0.0883322	0.282309	0.0400515
0	C	0.989942	0.329102	0.0800435
0	C	0.979519	0.346028	0.0750067
0	O	0.00433351	0.362282	0.0588782
0	O	0.0175262	0.358215	0.016287
0	F	0.0220522	0.316407	0.0440754
0	C	0.0976118	0.313351	0.116415
0	O	0.992522	0.293636	0.0612553
0	O	0.995031	0.279876	0.0905013
0	C	0.999327	0.267462	0.0142259
0	O	0.00745203	0.282982	0.0221384
0	C	0.0948494	0.308498	0.096623
0	O	0.986844	0.364549	0.00585431
0	O	0.806255	0.458147	0.150017
0	Fe	0.819779	0.454088	0.173961
0	O	0.834211	0.448633	0.200657
0	O	0.837531	0.431777	0.161213
0	C	0.839627	0.423379	0.144976
0	O	0.830463	0.428654	0.129862
0	O	0.845314	0.469123	0.135445
0	C	0.850022	0.476402	0.150995
0	O	0.83935	0.474213	0.166125
0	O	0.802219	0.43116	0.181948
0	H	0.84807	0.44867	0.196204
0	H	0.832355	0.434856	0.202989
0	O	0.910143	0.464034	0.162316
0	O	0.919853	0.420285	0.134786
0	Fe	0.929584	0.444483	0.176026
0	O	0.912394	0.444111	0.200341
0	O	0.91275	0.420571	0.166026
0	O	0.941799	0.468092	0.189206
0	C	0.908828	0.414721	0.148769
0	H	0.900565	0.435959	0.196891
0	H	0.906393	0.457538	0.200657
0	C	0.854553	0.407538	0.143876
0	C	0.890302	0.405341	0.143437
0	C	0.872503	0.412721	0.151266
0	H	0.874189	0.426121	0.160739
0	H	0.901627	0.457123	0.152591
0	C	0.853841	0.391604	0.130892
0	C	0.867392	0.489237	0.151373
0	O	0.947017	0.445069	0.153327
0	C	0.889836	0.390095	0.129853
0	O	0.939327	0.487182	0.149727
0	C	0.793553	0.490914	0.182479
0	H	0.802262	0.392146	0.195161
0	O	0.804374	0.477205	0.188872
0	H	0.934135	0.489585	0.137
0	Fe	0.820661	0.457419	0.125218
0	O	0.949368	0.42609	0.189364
0	O	0.946978	0.404404	0.164962
0	H	0.929141	0.491357	0.213043
0	H	0.869954	0.491551	0.181848
0	H	0.879937	0.4899	0.227172
0	C	0.870953	0.382915	0.123715
0	Fe	0.949237	0.420595	0.140298
0	C	0.951937	0.408912	0.182368
0	H	0.902969	0.383219	0.124922
0	C	0.787257	0.390027	0.191056
0	F	0.950893	0.397802	0.126429
0	H	0.84027	0.38619	0.125135
0	H	0.869284	0.489193	0.120391
0	C	0.956845	0.478742	0.187079
0	H	0.0642865	0.396999	0.214614
0	C	0.0245145	0.418626	0.133703
0	O	0.0809416	0.426266	0.179598
0	C	0.96065	0.392928	0.194714
0	C	0.0721572	0.40779	0.222972
0	O	0.0627176	0.423702	0.141387
0	H	0.967659	0.411791	0.219061
0	H	0.0268873	0.421014	0.149479
0	C	0.975011	0.381194	0.224663
0	C	0.0927341	0.41841	0.191515
0	O	0.0896969	0.477045	0.227779
0	C	0.0852604	0.420099	0.212789
0	O	0.978762	0.419773	0.143039
0	O	0.110691	0.415147	0.187545
0	O	0.103708	0.419806	0.14534
0	H	0.100516	0.447359	0.213696
0	O	0.0634083	0.460514	0.16044
0	C	0.00726642	0.424423	0.124231
0	Fe	0.96249	0.468635	0.145328
0	H	0.0556868	0.461062	0.148589
0	H	0.0555339	0.455677	0.17154
0	O	0.0720805	0.394762	0.131263
0	O	0.110435	0.378853	0.135227
0	C	0.990186	0.432172	0.135592
0	C	0.0590811	0.408035	0.133184
0	C	0.0903817	0.437686	0.221291
0	O	0.104826	0.459159	0.163587
0	Fe	0.0844933	0.439041	0.152864
0	O	0.987233	0.450593	0.13823
0	O	0.9698	0.474404	0.174559
0	C	0.967733	0.396496	0.21331
0	C	0.0394972	0.407851	0.123509
0	O	0.0856777	0.451511	0.126447
0	O	0.00522828	0.382761	0.240364
0	C	0.10779	0.379674	0.241322
0	C	0.0825114	0.44481	0.238853
0	H	0.111606	0.490094	0.199913
0	O	0.980152	0.493908	0.137116
0	C	0.987056	0.384035	0.242032
0	Fe	0.0996189	0.403209	0.122073
0	C	0.0659244	0.412593	0.242673
0	C	0.087388	0.466081	0.242677
0	C	0.105243	0.370377	0.223041
0	H	0.988375	0.486182	0.127327
0	C	0.959698	0.372659	0.188107
0	H	0.972675	0.486137	0.243905
0	C	0.796509	0.495271	0.119649
0	O	0.871777	0.496652	0.236688
0	C	0.874487	0.497194	0.168648
0	C	0.874899	0.496091	0.133925
0	H	0.945555	0.498999	0.153736
0	O	0.84557	0.526644	0.225389
0	O	0.840794	0.556815	0.216416
0	C	0.804665	0.549742	0.198694
0	C	0.809995	0.515601	0.204409
0	C	0.816202	0.535293	0.207749
0	C	0.835202	0.539422	0.217015
0	C	0.880053	0.592978	0.152968
0	C	0.871407	0.595458	0.134968
0	O	0.889066	0.573583	0.186873
0	C	0.874727	0.58482	0.187796
0	C	0.869539	0.595354	0.170134
0	O	0.86479	0.587505	0.203334
0	Fe	0.875926	0.526215	0.229552
0	O	0.902838	0.536227	0.191037
0	O	0.876157	0.519561	0.200453
0	C	0.887877	0.512543	0.169343
0	C	0.894579	0.520462	0.151693
0	C	0.889518	0.52319	0.188112
0	C	0.887359	0.512161	0.134154
0	Fe	0.861355	0.573322	0.230217
0	O	0.905536	0.519781	0.229492
0	Fe	0.904645	0.562174	0.209139
0	O	0.880986	0.553595	0.223073
0	O	0.903709	0.59146	0.221862
0	O	0.920781	0.548334	0.230562
0	C	0.921763	0.529592	0.229303
0	F	0.92742	0.56987	0.196339
0	H	0.90289	0.533795	0.151596
0	H	0.809554	0.564782	0.19962
0	H	0.81932	0.504636	0.210461
0	H	0.894517	0.586365	0.153859
0	C	0.941103	0.501985	0.21224
0	O	0.840282	0.593989	0.237857
0	C	0.940031	0.5201	0.222642
0	O	0.810922	0.6026	0.136238
0	C	0.841772	0.604809	0.152405
0	C	0.851295	0.604022	0.169562
0	C	0.851332	0.601366	0.135113
0	C	0.893395	0.600783	0.234315
0	C	0.820075	0.607079	0.151674
0	C	0.794449	0.511464	0.192243
0	H	0.842576	0.606535	0.182419
0	O	0.810557	0.611858	0.167027
0	O	0.880526	0.591732	0.244174
0	O	0.792519	0.615007	0.205018
0	H	0.833364	0.599853	0.226329
0	H	0.790618	0.527664	0.237795
0	O	0.788439	0.579913	0.178396
0	H	0.79133	0.606495	0.244268
0	H	0.789611	0.579406	0.222899
0	H	0.805685	0.60802	0.206193
0	H	0.8442	0.602413	0.121524
0	H	0.932358	0.565478	0.126139
0	C	0.78744	0.546516	0.188278
0	H	0.971864	0.502525	0.128789
0	O	0.115412	0.571671	0.13672
0	H	0.956182	0.544232	0.231928
0	H	0.109027	0.496176	0.15645
0	C	0.957174	0.497514	0.19967
0	C	0.956008	0.531754	0.221671
0	H	0.105737	0.508288	0.190341
0	H	0.032988	0.557876	0.130218
0	Fe	0.0191936	0.610438	0.188387
0	C	0.0161741	0.5831	0.156231
0	Fe	0.0916632	0.507025	0.225504
0	Fe	0.0201635	0.561999	0.196269
0	C	0.970753	0.529941	0.207777
0	O	0.971851	0.600652	0.202571
0	H	0.0795231	0.570581	0.219119
0	O	0.99449	0.548154	0.190667
0	O	0.00756019	0.59752	0.164086
0	C	0.107485	0.544764	0.213043
0	O	0.980639	0.562053	0.216332
0	C	0.0857404	0.588451	0.173409
0	H	0.0200981	0.525021	0.193638
0	O	0.047036	0.573746	0.2028
0	C	0.0226674	0.586186	0.135355
0	H	0.983229	0.510341	0.186475
0	O	0.0236277	0.568906	0.166012
0	C	0.0555769	0.586942	0.193354
0	C	0.102272	0.561257	0.199301
0	O	0.046491	0.599209	0.182892
0	C	0.108849	0.563563	0.17982
0	C	0.0764378	0.58444	0.19093
0	F	0.072145	0.503589	0.206818
0	C	0.0864842	0.572314	0.204879
0	C	0.972197	0.512433	0.196787
0	C	0.0998324	0.576647	0.166285
0	O	0.0102047	0.587818	0.202825
0	C	0.0249708	0.605454	0.129834
0	O	0.0932362	0.537044	0.22217
0	H	0.0348228	0.534433	0.178886
0	H	0.0786061	0.598436	0.163804
0	O	0.106774	0.530887	0.138301
0	O	0.0658836	0.528195	0.143235
0	O	0.0835432	0.565345	0.138047
0	C	0.0994506	0.572023	0.145918
0	Fe	0.990402	0.589871	0.222571
0	H	0.0738015	0.527768	0.15563
0	O	0.0178719	0.553227	0.225691
0	C	0.981853	0.547999	0.203898
0	O	0.0317636	0.534571	0.192297
0	H	0.0659529	0.513986	0.138308
0	O	0.112281	0.504137	0.202634
0	C	0.0324243	0.572129	0.124135
0	O	0.999936	0.617828	0.230579
0	C	0.0171651	0.562614	0.241766
0	H	0.0472761	0.538617	0.241248
0	O	0.00952879	0.579141	0.243523
0	O	0.968945	0.592709	0.243511
0	Fe	0.08359	0.540449	0.122753
0	H	0.0201122	0.617917	0.139558
0	C	0.975163	0.61673	0.194571
0	H	0.958312	0.584446	0.237855
0	O	0.111892	0.508642	0.244254
0	H	0.11853	0.552671	0.173718
0	H	0.00470325	0.615861	0.244471
0	C	0.84556	0.37307	0.275122
0	O	0.800259	0.370769	0.330912
0	C	0.809697	0.371655	0.279344
0	H	0.922863	0.376586	0.273942
0	C	0.795301	0.375762	0.313934
0	O	0.88377	0.37495	0.294944
0	Fe	0.82975	0.47199	0.345347
0	O	0.9091	0.395756	0.324581
0	O	0.895031	0.38806	0.353092
0	C	0.903587	0.400257	0.341863
0	O	0.867714	0.387644	0.321233
0	O	0.924487	0.384597	0.286265
0	C	0.867789	0.382111	0.303397
0	C	0.83093	0.379843	0.306003
0	C	0.847688	0.381317	0.293196
0	C	0.811882	0.377179	0.298825
0	H	0.832939	0.381659	0.322163
0	C	0.90602	0.419983	0.349601
0	C	0.890086	0.432503	0.349316
0	H	0.877883	0.429203	0.34006
0	F	0.854785	0.382003	0.358752
0	O	0.859466	0.461486	0.348336
0	O	0.827388	0.452327	0.321978
0	O	0.801657	0.480166	0.33868
0	H	0.825883	0.439119	0.327861
0	H	0.814605	0.455324	0.315443
0	C	0.889219	0.448466	0.362622
0	H	0.914829	0.394577	0.28258
0	C	0.872251	0.462805	0.362118
0	O	0.818413	0.451209	0.364337
0	C	0.920933	0.422231	0.363576
0	O	0.831732	0.48961	0.367041
0	O	0.838675	0.492858	0.326131
0	C	0.790676	0.494309	0.343554
0	H	0.818469	0.378769	0.36933
0	H	0.933127	0.412777	0.363876
0	H	0.857885	0.371172	0.266038
0	Fe	0.875192	0.369614	0.344276
0	C	0.00652988	0.372195	0.321765
0	H	0.969416	0.373775	0.325279
0	O	0.0252399	0.369695	0.319216
0	O	0.113722	0.463603	0.366264
0	O	0.0442724	0.384495	0.247656
0	O	0.976681	0.475987	0.255799
0	H	0.960795	0.406794	0.288348
0	C	0.0930858	0.379567	0.256586
0	O	0.997958	0.412835	0.283967
0	O	0.0753902	0.401253	0.361303
0	C	0.0012834	0.473899	0.28242
0	C	0.0538851	0.398297	0.255706
0	C	0.112246	0.450701	0.353284
0	C	0.0253773	0.452565	0.307311
0	O	0.0521237	0.401349	0.273882
0	O	0.0547474	0.475071	0.331737
0	F	0.0565006	0.393695	0.313379
0	O	0.0883126	0.473414	0.259734
0	C	0.0125901	0.442432	0.295171
0	C	0.0117538	0.421138	0.29369
0	H	0.0654344	0.435349	0.264361
0	H	0.989531	0.446162	0.273066
0	Fe	0.0378367	0.385894	0.296622
0	C	0.988245	0.485048	0.269009
0	O	0.0232875	0.410326	0.303334
0	H	0.0355881	0.44503	0.316043
0	Fe	0.98931	0.384403	0.286001
0	C	0.0706626	0.4314	0.249727
0	O	0.0159483	0.377907	0.279644
0	O	0.961711	0.393671	0.293753
0	O	0.998085	0.386137	0.313959
0	O	0.0997993	0.436336	0.355478
0	O	0.978948	0.384252	0.258382
0	C	0.0400536	0.484238	0.320674
0	C	0.00020589	0.453008	0.282413
0	C	0.0258767	0.473065	0.307904
0	C	0.0128404	0.483582	0.295907
0	O	0.095447	0.392102	0.27258
0	O	0.10124	0.485717	0.297589
0	H	0.961543	0.395981	0.307616
0	H	0.0634329	0.486766	0.337652
0	H	0.0843979	0.386198	0.283088
0	H	0.0914107	0.47479	0.296251
0	H	0.063812	0.406528	0.355066
0	H	0.0490458	0.493446	0.369408
0	C	0.814814	0.594214	0.366988
0	H	0.877808	0.496307	0.25013
0	H	0.810093	0.609291	0.364675
0	H	0.831312	0.586274	0.245659
0	O	0.844016	0.52785	0.367816
0	H	0.792088	0.590363	0.259454
0	C	0.851849	0.601924	0.365496
0	H	0.791596	0.512969	0.308847
0	H	0.926079	0.610301	0.359933
0	Fe	0.879619	0.614567	0.332222
0	C	0.940734	0.611162	0.322565
0	O	0.910425	0.609455	0.358363
0	O	0.857457	0.558928	0.25705
0	O	0.874759	0.530722	0.258533
0	C	0.863802	0.543318	0.266166
0	O	0.876786	0.588052	0.320337
0	O	0.881325	0.570115	0.34599
0	C	0.875215	0.572077	0.328775
0	Fe	0.909051	0.579771	0.351897
0	O	0.916342	0.586987	0.323868
0	O	0.866326	0.500752	0.343235
0	C	0.854379	0.503401	0.328694
0	C	0.864046	0.537886	0.32809
0	C	0.85473	0.523654	0.29733
0	C	0.86571	0.555983	0.318513
0	C	0.858273	0.541511	0.287351
0	C	0.864013	0.55743	0.298618
0	C	0.858546	0.520922	0.317248
0	H	0.848647	0.51114	0.288129
0	H	0.867321	0.571544	0.291114
0	H	0.866765	0.538014	0.343181
0	O	0.896185	0.606829	0.35474
0	O	0.915904	0.550773	0.345599
0	H	0.909398	0.541751	0.354911
0	H	0.908436	0.548184	0.333086
0	C	0.920437	0.604634	0.319228
0	O	0.794875	0.505928	0.357351
0	O	0.854198	0.610294	0.348866
0	H	0.859659	0.612511	0.30032
0	O	0.906316	0.617763	0.317324
0	C	0.835277	0.588718	0.369153
0	O	0.0580015	0.572344	0.353425
0	H	0.118291	0.518477	0.294897
0	Fe	0.106507	0.496953	0.270023
0	H	0.0941166	0.495565	0.305627
0	H	0.0334619	0.614179	0.329006
0	H	0.954373	0.584448	0.316221
0	C	0.0458804	0.535493	0.290066
0	O	0.00469786	0.597397	0.34233
0	O	0.00415959	0.521601	0.358605
0	H	0.00953355	0.568224	0.281621
0	F	0.976789	0.533768	0.332213
0	O	0.0384312	0.502982	0.321727
0	O	0.0307542	0.570387	0.321115
0	O	0.97623	0.555255	0.367953
0	O	0.016135	0.56171	0.360674
0	O	0.987832	0.572783	0.331874
0	C	0.0420703	0.540839	0.256041
0	Fe	0.0296502	0.583899	0.348624
0	O	0.0444796	0.606629	0.333697
0	H	0.973325	0.585856	0.255983
0	C	0.9567	0.599233	0.320166
0	C	0.025123	0.554123	0.313983
0	Fe	0.9964	0.547728	0.345908
0	C	0.975776	0.605088	0.327389
0	C	0.990897	0.590933	0.333744
0	C	0.0201653	0.557158	0.278106
0	C	0.0686598	0.519073	0.264055
0	O	0.0689315	0.512855	0.24634
0	O	0.0833594	0.516208	0.275011
0	O	0.016423	0.542238	0.325151
0	H	0.0115168	0.499785	0.296497
0	O	0.988118	0.50339	0.269327
0	H	0.0544558	0.53094	0.302453
0	C	0.0298749	0.548271	0.293432
0	C	0.0250411	0.552944	0.258914
0	H	0.0592291	0.563603	0.340985
0	C	0.051573	0.53071	0.270449
0	H	0.0501992	0.613303	0.344888
0	O	0.941947	0.450937	0.467763
0	O	0.929047	0.466481	0.439118
0	H	0.922026	0.478098	0.434913
0	O	0.867045	0.424103	0.455007
0	O	0.838492	0.438182	0.459682
0	C	0.857209	0.438114	0.462057
0	Fe	0.852243	0.401666	0.441485
0	O	0.837693	0.396701	0.465973
0	Fe	0.821524	0.418343	0.474632
0	O	0.803039	0.414074	0.449709
0	O	0.867307	0.408522	0.415395
0	O	0.876525	0.385618	0.449484
0	O	0.828126	0.416554	0.428991
0	C	0.809475	0.416104	0.432409
0	H	0.877717	0.398424	0.415497
0	C	0.88512	0.455169	0.482015
0	C	0.853459	0.469154	0.478608
0	C	0.865575	0.454475	0.47414
0	H	0.838157	0.468177	0.4737
0	H	0.930453	0.441779	0.467171
0	H	0.922458	0.454083	0.434014
0	O	0.802332	0.441755	0.483559
0	H	0.893943	0.442681	0.480916
0	C	0.857707	0.482179	0.492503
0	O	0.802177	0.401773	0.489835
0	C	0.933741	0.438724	0.393452
0	H	0.874464	0.420557	0.419469
0	H	0.913539	0.398837	0.462591
0	O	0.938234	0.455559	0.398909
0	C	0.947051	0.3961	0.44418
0	H	0.901986	0.460003	0.390089
0	O	0.941829	0.423341	0.399847
0	C	0.881795	0.376567	0.464507
0	C	0.934318	0.379807	0.449216
0	C	0.802745	0.435035	0.404059
0	H	0.812306	0.445241	0.411114
0	C	0.917195	0.383935	0.459994
0	C	0.795885	0.4378	0.385027
0	C	0.796413	0.419141	0.414987
0	C	0.798103	0.384403	0.490315
0	H	0.829873	0.380236	0.419827
0	O	0.840353	0.376678	0.428623
0	O	0.820972	0.486799	0.408486
0	C	0.919112	0.437188	0.378082
0	O	0.946782	0.411016	0.454896
0	Fe	0.838585	0.373109	0.48148
0	O	0.87022	0.37176	0.478799
0	C	0.903095	0.450511	0.377595
0	O	0.870465	0.475437	0.37524
0	H	0.826488	0.474301	0.404076
0	C	0.902301	0.370479	0.463747
0	H	0.809506	0.452656	0.488593
0	H	0.936043	0.493748	0.403447
0	O	0.948135	0.493638	0.411534
0	C	0.803416	0.454188	0.375061
0	H	0.793817	0.437828	0.493751
0	H	0.798365	0.489265	0.472712
0	O	0.796677	0.471259	0.378102
0	O	0.809625	0.371213	0.484783
0	H	0.850346	0.371339	0.419438
0	O	0.787389	0.492562	0.481194
0	O	0.118153	0.405127	0.411676
0	Fe	0.954834	0.466648	0.422689
0	O	0.957171	0.395938	0.428564
0	C	0.00338445	0.463482	0.381995
0	C	0.021485	0.453712	0.380667
0	O	0.0179537	0.447562	0.450143
0	C	0.0260818	0.403112	0.461333
0	C	0.0772256	0.465036	0.451587
0	C	0.0223266	0.40751	0.442391
0	O	0.968796	0.426845	0.487312
0	O	0.0829977	0.4723	0.418696
0	O	0.0189526	0.438989	0.48327
0	C	0.0775257	0.456562	0.486582
0	H	0.0507831	0.461589	0.436725
0	Fe	0.0871241	0.422265	0.380571
0	C	0.0574009	0.459697	0.450263
0	O	0.979582	0.467961	0.406397
0	F	0.971488	0.400191	0.393568
0	H	0.00324548	0.437575	0.480801
0	Fe	0.0986583	0.468414	0.392093
0	H	0.0749753	0.400371	0.461392
0	O	0.106014	0.458424	0.434979
0	O	0.112303	0.406095	0.380285
0	C	0.0598262	0.399823	0.455474
0	C	0.0275025	0.446026	0.465853
0	H	0.0157295	0.473434	0.484396
0	O	0.981164	0.438895	0.391517
0	C	0.0575026	0.450017	0.485312
0	C	0.0447603	0.39888	0.468524
0	O	0.0738248	0.408662	0.405465
0	C	0.0736728	0.410955	0.423789
0	C	0.0113207	0.487639	0.47952
0	H	0.101856	0.468232	0.470889
0	O	0.085359	0.422286	0.432749
0	H	0.013999	0.404963	0.471591
0	C	0.056202	0.404199	0.43573
0	C	0.0866808	0.464028	0.4699
0	C	0.00187369	0.41273	0.438065
0	C	0.0451412	0.391863	0.489787
0	O	0.990191	0.417266	0.451974
0	C	0.0476251	0.452159	0.46699
0	Fe	0.968033	0.419574	0.41186
0	Fe	0.110639	0.431886	0.421914
0	C	0.982076	0.474752	0.459268
0	H	0.0343235	0.413907	0.413738
0	O	0.0990108	0.440133	0.397959
0	O	0.995871	0.414569	0.420654
0	C	0.0894591	0.466132	0.433905
0	C	0.0370127	0.408415	0.428648
0	C	0.986177	0.456561	0.393055
0	O	0.962835	0.440114	0.430852
0	Fe	0.965095	0.434076	0.458382
0	O	0.970377	0.479826	0.445853
0	O	0.983763	0.457036	0.464254
0	H	0.0229563	0.439091	0.386578
0	C	0.0581538	0.457043	0.378208
0	O	0.0609975	0.438507	0.379498
0	F	0.998436	0.37791	0.470474
0	O	0.0722902	0.4687	0.379375
0	H	0.976105	0.414191	0.487096
0	C	0.00198344	0.4833	0.376045
0	C	0.994097	0.4903	0.468004
0	C	0.0381636	0.464564	0.375285
0	H	0.955118	0.422939	0.491389
0	H	0.104634	0.37894	0.435057
0	H	0.987939	0.490827	0.37743
0	C	0.0364153	0.484193	0.372546
0	F	0.0980787	0.494318	0.38768
0	H	0.0692973	0.391199	0.370236
0	C	0.0186843	0.493435	0.372537
0	H	0.116321	0.415986	0.456595
0	O	0.890332	0.613054	0.438111
0	C	0.829723	0.534954	0.377449
0	H	0.863096	0.499161	0.406445
0	Fe	0.808501	0.496959	0.382619
0	O	0.85151	0.505072	0.400493
0	O	0.902733	0.57177	0.379981
0	H	0.853658	0.519463	0.403128
0	O	0.81764	0.524595	0.38681
0	C	0.934656	0.57725	0.422769
0	C	0.929707	0.573301	0.402743
0	H	0.924846	0.58407	0.432206
0	C	0.811814	0.549719	0.455098
0	C	0.820363	0.576876	0.475652
0	C	0.814708	0.561599	0.438366
0	C	0.82726	0.587156	0.459184
0	C	0.826958	0.577384	0.441407
0	C	0.812561	0.557981	0.473381
0	H	0.830139	0.586598	0.428772
0	H	0.806846	0.534985	0.452625
0	O	0.864714	0.60364	0.379983
0	O	0.906622	0.598845	0.396772
0	C	0.910901	0.581244	0.394259
0	C	0.943664	0.564164	0.391195
0	C	0.79662	0.570536	0.430884
0	O	0.809327	0.527213	0.487718
0	O	0.853104	0.609212	0.454462
0	C	0.835556	0.60696	0.460309
0	C	0.808047	0.545308	0.490012
0	H	0.883665	0.602255	0.43195
0	H	0.940671	0.561467	0.375722
0	H	0.944232	0.501664	0.423405
0	H	0.822103	0.584049	0.489966
0	F	0.881834	0.514145	0.376439
0	O	0.790741	0.565665	0.414651
0	C	0.952589	0.571997	0.43005
0	H	0.897693	0.607163	0.449404
0	C	0.82457	0.555106	0.374943
0	Fe	0.85735	0.502137	0.371634
0	H	0.947274	0.537894	0.491432
0	C	0.799726	0.579754	0.369655
0	H	0.793749	0.54921	0.374764
0	C	0.804771	0.559837	0.372494
0	C	0.839547	0.569092	0.373193
0	H	0.855056	0.56326	0.372957
0	O	0.787499	0.582571	0.442176
0	C	0.00935738	0.614041	0.42284
0	H	0.118454	0.596828	0.461824
0	O	0.95655	0.568576	0.465263
0	C	0.0215734	0.614783	0.406377
0	O	0.0282898	0.525778	0.379123
0	O	0.031881	0.599343	0.375274
0	F	0.0155139	0.578865	0.442196
0	O	0.013148	0.609066	0.46524
0	H	0.0856127	0.520794	0.474604
0	O	0.977064	0.588768	0.447842
0	O	0.0500088	0.559892	0.386155
0	C	0.988158	0.509404	0.464505
0	H	0.977856	0.55369	0.424657
0	O	0.993751	0.545352	0.393684
0	O	0.0274433	0.546734	0.417458
0	H	0.000140195	0.602068	0.423676
0	C	0.977781	0.552446	0.386047
0	Fe	0.00104384	0.582477	0.464237
0	C	0.965593	0.561959	0.418003
0	C	0.999666	0.524665	0.471873
0	C	0.991229	0.543695	0.474062
0	C	0.962181	0.558836	0.398869
0	H	0.0389534	0.537699	0.417342
0	O	0.992349	0.554971	0.459899
0	Fe	0.0214476	0.553754	0.388114
0	C	0.961176	0.577644	0.449207
0	H	0.0163756	0.537607	0.421346
0	O	0.0244438	0.574053	0.480504
0	O	0.0946389	0.514925	0.483431
0	H	0.103143	0.525278	0.487886
0	O	0.984341	0.588643	0.487475
0	C	0.0225089	0.598132	0.39154
0	H	0.053463	0.562213	0.399737
0	O	0.0153788	0.581527	0.398464
0	H	0.974948	0.512622	0.457905
0	H	0.0568355	0.546974	0.382708
0	C	0.0234419	0.503155	0.484836
0	C	0.0165893	0.521627	0.482161
0	O	0.985045	0.548399	0.490577
0	H	0.0325524	0.586238	0.484414
0	H	0.0238837	0.534282	0.488569
0	H	0.114297	0.563976	0.472273
0	O	0.0559404	0.498552	0.493987
0	C	0.0168054	0.514832	0.369876
0	C	0.890684	0.470593	0.495494
0	O	0.888264	0.370638	0.579459
0	C	0.876808	0.484561	0.498092
0	O	0.825363	0.491533	0.498951
0	C	0.836803	0.369787	0.619187
0	O	0.790049	0.407426	0.596078
0	Fe	0.822514	0.432771	0.619042
0	O	0.790307	0.480718	0.521125
0	C	0.791339	0.42436	0.564127
0	O	0.933067	0.405231	0.610001
0	C	0.793333	0.44993	0.53902
0	O	0.891242	0.376424	0.548578
0	O	0.806782	0.435113	0.593608
0	O	0.817008	0.474683	0.539171
0	O	0.944468	0.436726	0.533071
0	O	0.924956	0.4291	0.558125
0	C	0.935926	0.424313	0.543984
0	Fe	0.924713	0.45476	0.572975
0	Fe	0.944216	0.465082	0.529095
0	O	0.925364	0.46947	0.548808
0	O	0.893918	0.456834	0.571879
0	O	0.885378	0.467582	0.542516
0	C	0.884616	0.455001	0.556089
0	O	0.921159	0.458806	0.509573
0	C	0.908626	0.472526	0.506756
0	O	0.841529	0.389608	0.508308
0	C	0.84415	0.408158	0.512624
0	O	0.837889	0.421992	0.500967
0	C	0.940921	0.403635	0.539505
0	C	0.926428	0.390788	0.530629
0	H	0.911468	0.396031	0.529275
0	C	0.880268	0.419407	0.563977
0	C	0.855989	0.399487	0.547442
0	C	0.873973	0.4356	0.552759
0	C	0.854279	0.413683	0.531946
0	C	0.862217	0.431893	0.535578
0	C	0.871863	0.400653	0.561227
0	H	0.860613	0.443504	0.524681
0	H	0.892079	0.420628	0.57425
0	H	0.9329	0.384462	0.579972
0	O	0.848257	0.4415	0.604358
0	H	0.813566	0.447162	0.561687
0	O	0.924556	0.479787	0.590145
0	H	0.847057	0.38647	0.546346
0	F	0.923481	0.441491	0.595842
0	C	0.800804	0.440391	0.554975
0	C	0.884657	0.381975	0.564196
0	C	0.800557	0.469798	0.532543
0	C	0.796505	0.421927	0.585804
0	C	0.949977	0.410526	0.603334
0	C	0.932371	0.372784	0.522499
0	Fe	0.905933	0.49019	0.545265
0	F	0.846424	0.486505	0.560777
0	C	0.948727	0.38398	0.579634
0	O	0.911189	0.488465	0.515848
0	C	0.91131	0.492712	0.589652
0	O	0.830151	0.402982	0.61347
0	H	0.843986	0.444757	0.591784
0	H	0.818921	0.489698	0.5981
0	C	0.842913	0.491192	0.505213
0	H	0.854678	0.428805	0.601015
0	C	0.952316	0.369931	0.520092
0	H	0.112679	0.401238	0.595485
0	O	0.953402	0.453905	0.575282
0	O	0.058941	0.381897	0.496317
0	C	0.0103083	0.431708	0.615678
0	O	0.0287677	0.390854	0.498046
0	H	0.966129	0.472305	0.498818
0	O	0.0118757	0.37358	0.602942
0	C	0.958684	0.399401	0.586869
0	H	0.0507628	0.446208	0.498411
0	H	0.976605	0.456731	0.512683
0	O	0.991631	0.377384	0.506807
0	C	0.00943304	0.385927	0.590312
0	C	0.987168	0.458534	0.573206
0	C	0.989733	0.385307	0.579975
0	H	0.985231	0.415777	0.58497
0	Fe	0.0824882	0.475281	0.546554
0	C	0.0239284	0.453628	0.588435
0	C	0.0837885	0.464766	0.505297
0	C	0.00360149	0.463735	0.561689
0	O	0.0336162	0.482948	0.546489
0	H	0.971948	0.409042	0.542852
0	O	0.0966709	0.450928	0.559851
0	H	0.0476036	0.422749	0.577325
0	O	0.110788	0.485457	0.539091
0	H	0.0676034	0.418405	0.585885
0	C	0.989366	0.451548	0.592004
0	H	0.105019	0.443191	0.550833
0	C	0.978301	0.402383	0.581784
0	H	0.0378497	0.45218	0.595355
0	C	0.0389745	0.469924	0.55796
0	O	0.0768429	0.458914	0.521604
0	O	0.0550074	0.424906	0.589836
0	C	0.00778855	0.446949	0.599447
0	O	0.0569888	0.465535	0.559867
0	H	0.977951	0.449819	0.601655
0	C	0.0226154	0.461213	0.569133
0	H	0.00212346	0.467646	0.546511
0	O	0.0944822	0.479788	0.504746
0	C	0.987836	0.37742	0.524831
0	H	0.107517	0.455687	0.568708
0	Fe	0.043102	0.408845	0.611877
0	C	0.967504	0.461386	0.565492
0	O	0.0202644	0.401544	0.591492
0	C	0.961213	0.399083	0.537022
0	O	0.966266	0.469619	0.548331
0	O	0.964015	0.459386	0.506943
0	C	0.967029	0.381748	0.52913
0	H	0.11041	0.392119	0.55128
0	O	0.0579729	0.386841	0.602733
0	O	0.0880075	0.491067	0.570644
0	C	0.0672117	0.375049	0.613164
0	O	0.959556	0.426319	0.610582
0	O	0.998969	0.370102	0.537559
0	O	0.999654	0.416102	0.617675
0	H	0.93434	0.554036	0.499173
0	O	0.899352	0.494514	0.574997
0	O	0.852904	0.614858	0.585577
0	H	0.806596	0.5801	0.538922
0	O	0.94546	0.495171	0.521129
0	O	0.943891	0.588206	0.501639
0	C	0.89642	0.611263	0.537618
0	O	0.879335	0.562021	0.613955
0	H	0.879729	0.497829	0.507053
0	O	0.847523	0.498575	0.521738
0	O	0.807358	0.536045	0.566963
0	O	0.946566	0.547734	0.502226
0	H	0.878716	0.514465	0.550955
0	O	0.811881	0.503407	0.566576
0	C	0.808156	0.499555	0.604931
0	C	0.807316	0.519538	0.575488
0	O	0.802361	0.552354	0.506104
0	O	0.833868	0.553936	0.534415
0	Fe	0.829139	0.501692	0.544765
0	O	0.810786	0.517127	0.529446
0	O	0.842787	0.525559	0.554151
0	H	0.852599	0.527592	0.543961
0	O	0.925686	0.51138	0.547787
0	H	0.934679	0.50965	0.558479
0	O	0.884319	0.50943	0.53957
0	H	0.890084	0.521282	0.534577
0	Fe	0.879399	0.580094	0.588985
0	O	0.884898	0.60261	0.606484
0	O	0.874602	0.55602	0.57141
0	O	0.911113	0.577687	0.583663
0	O	0.84907	0.584165	0.593592
0	C	0.926266	0.588521	0.588745
0	H	0.88682	0.554456	0.56409
0	H	0.86429	0.557256	0.561505
0	H	0.835775	0.56262	0.54518
0	H	0.849543	0.522094	0.566294
0	H	0.91994	0.523788	0.551712
0	H	0.90271	0.530863	0.592232
0	C	0.843438	0.601918	0.595472
0	O	0.878944	0.594251	0.563262
0	O	0.926105	0.601125	0.602568
0	C	0.830513	0.607871	0.612668
0	Fe	0.799699	0.505091	0.506106
0	C	0.888811	0.609172	0.55823
0	C	0.801557	0.51696	0.596013
0	Fe	0.805266	0.544233	0.536487
0	C	0.903537	0.523792	0.606199
0	C	0.907399	0.503888	0.607232
0	C	0.945492	0.581895	0.58104
0	C	0.941915	0.606879	0.503463
0	H	0.924427	0.595731	0.537389
0	H	0.947159	0.602743	0.558267
0	C	0.915496	0.605842	0.530218
0	H	0.948202	0.560417	0.602441
0	O	0.795608	0.571736	0.544058
0	C	0.922875	0.613514	0.512622
0	H	0.79742	0.571892	0.558948
0	C	0.788506	0.529147	0.605627
0	C	0.883334	0.619043	0.524317
0	Fe	0.984107	0.615677	0.49827
0	H	0.110696	0.494959	0.598599
0	O	0.104797	0.599507	0.6131
0	H	0.0147568	0.611094	0.516116
0	C	0.103342	0.508057	0.602357
0	C	0.0847666	0.543461	0.61252
0	C	0.0389146	0.502611	0.499101
0	O	0.0137988	0.613134	0.50216
0	O	0.025097	0.568747	0.592515
0	C	0.111701	0.612035	0.60113
0	Fe	0.966076	0.569448	0.49451
0	O	0.05937	0.506751	0.573539
0	C	0.0830625	0.603061	0.532595
0	H	0.0291944	0.555156	0.594322
0	C	0.974966	0.586453	0.533645
0	C	0.0850945	0.572694	0.514972
0	O	0.0589943	0.535674	0.54177
0	C	0.0849964	0.512986	0.595106
0	C	0.972863	0.559309	0.582152
0	O	0.0345542	0.50847	0.516717
0	O	0.996765	0.533775	0.581884
0	Fe	0.0457763	0.589509	0.601937
0	C	0.0696023	0.564759	0.525981
0	C	0.0660821	0.543599	0.526853
0	H	0.994509	0.561334	0.558395
0	O	0.0705195	0.61827	0.567347
0	F	0.0244246	0.520353	0.554336
0	C	0.076813	0.502659	0.578861
0	H	0.986768	0.524781	0.614113
0	C	0.955672	0.566855	0.590242
0	C	0.110608	0.596823	0.508939
0	O	0.0247602	0.61	0.602832
0	H	0.013585	0.570121	0.601506
0	O	0.978818	0.604191	0.526739
0	C	0.0608022	0.576174	0.540143
0	O	0.105621	0.513071	0.5246
0	O	0.975925	0.571066	0.52284
0	C	0.98077	0.567658	0.565015
0	C	0.982891	0.542328	0.591126
0	C	0.117014	0.502304	0.533937
0	H	0.959447	0.498012	0.520814
0	Fe	0.0471234	0.50815	0.544179
0	O	0.0646174	0.607891	0.609927
0	C	0.0669142	0.595068	0.543402
0	O	0.0513695	0.593607	0.573776
0	H	0.0908224	0.563216	0.503017
0	C	0.0925374	0.591935	0.518006
0	C	0.0746884	0.529739	0.601788
0	H	0.0499049	0.569466	0.548829
0	O	0.0661693	0.568415	0.601148
0	O	0.115929	0.614438	0.504968
0	H	0.0904666	0.616962	0.536915
0	O	0.0705165	0.497226	0.53376
0	O	0.0705768	0.533364	0.511576
0	C	0.954658	0.590137	0.564524
0	C	0.970973	0.582753	0.55494
0	H	0.0598774	0.533213	0.596887
0	C	0.0616453	0.603098	0.562133
0	O	0.977579	0.536312	0.609857
0	Fe	0.0814667	0.505574	0.509335
0	O	0.954579	0.618882	0.496289
0	C	0.0759795	0.562396	0.615185
0	C	0.113364	0.521344	0.614477
0	C	0.103888	0.539338	0.619147
0	O	0.837005	0.430397	0.644284
0	C	0.831983	0.437875	0.6602
0	C	0.862079	0.386857	0.69814
0	O	0.865849	0.469693	0.722171
0	C	0.855714	0.454706	0.725863
0	C	0.849464	0.414023	0.679024
0	C	0.857869	0.420445	0.712806
0	C	0.843713	0.433105	0.676703
0	C	0.853266	0.440299	0.71037
0	C	0.845479	0.446798	0.692491
0	C	0.857374	0.407684	0.696644
0	H	0.863285	0.416539	0.727431
0	H	0.838516	0.46134	0.692151
0	H	0.844938	0.403329	0.668468
0	O	0.817581	0.449575	0.661887
0	O	0.940093	0.408158	0.696824
0	H	0.924719	0.411331	0.700178
0	O	0.945084	0.428202	0.724136
0	O	0.86803	0.377742	0.682996
0	C	0.916888	0.386133	0.738323
0	O	0.90706	0.382198	0.666461
0	O	0.799266	0.426077	0.633892
0	C	0.801206	0.472042	0.626974
0	O	0.80757	0.386175	0.62962
0	O	0.864023	0.378925	0.715405
0	H	0.905171	0.394487	0.674086
0	H	0.921233	0.380526	0.668665
0	O	0.903602	0.376836	0.706912
0	H	0.893371	0.403842	0.739342
0	C	0.905882	0.372379	0.725106
0	H	0.835016	0.49117	0.740094
0	C	0.908108	0.402464	0.744179
0	O	0.849592	0.452256	0.742271
0	C	0.952048	0.417337	0.710431
0	O	0.816757	0.462766	0.622134
0	Fe	0.870112	0.493825	0.740258
0	O	0.787561	0.465314	0.637555
0	H	0.845696	0.370642	0.649361
0	Fe	0.789103	0.442018	0.655473
0	C	0.799556	0.492448	0.621935
0	H	0.894975	0.492132	0.713934
0	H	0.905753	0.478908	0.627578
0	O	0.901802	0.477699	0.663244
0	H	0.898797	0.471791	0.678012
0	H	0.923226	0.469854	0.739944
0	H	0.951024	0.431349	0.622291
0	C	0.824298	0.387108	0.620703
0	O	0.791409	0.420125	0.67557
0	C	0.108928	0.477885	0.644025
0	O	0.0652311	0.375629	0.676348
0	Fe	0.0772381	0.482267	0.725708
0	Fe	0.0483832	0.385133	0.652877
0	O	0.0797266	0.453486	0.713898
0	O	0.0115957	0.461873	0.725219
0	C	0.0683073	0.442762	0.654026
0	C	0.0635584	0.422999	0.64804
0	C	0.061897	0.472493	0.671486
0	C	0.0154596	0.443867	0.729855
0	C	0.0770765	0.482129	0.66117
0	C	0.089152	0.471024	0.649479
0	C	0.985313	0.424459	0.72315
0	H	0.978443	0.432066	0.735136
0	C	0.973279	0.414896	0.709305
0	C	0.0105265	0.39796	0.672244
0	H	0.0941532	0.443824	0.635592
0	H	0.973635	0.394347	0.685673
0	C	0.00533935	0.427281	0.719698
0	O	0.051391	0.474229	0.736573
0	C	0.0836823	0.452071	0.644782
0	Fe	0.0296767	0.486224	0.724039
0	O	0.038685	0.476893	0.696512
0	C	0.0579162	0.452775	0.668005
0	Fe	0.00581029	0.386227	0.628859
0	O	0.00117988	0.396288	0.656415
0	C	0.00165689	0.406832	0.690122
0	O	0.0549967	0.412147	0.659573
0	H	0.0284808	0.419541	0.69864
0	C	0.981844	0.404446	0.693717
0	O	0.0279618	0.392044	0.673479
0	H	0.0911914	0.453827	0.705099
0	H	0.0477236	0.445729	0.677159
0	C	0.0549884	0.482143	0.689318
0	O	0.0324709	0.392704	0.630939
0	C	0.0133959	0.417466	0.703091
0	O	0.0654669	0.417796	0.630541
0	F	0.979122	0.38088	0.626334
0	O	0.070287	0.377303	0.631525
0	O	0.0666881	0.49155	0.700085
0	O	0.103587	0.489039	0.714604
0	H	0.112813	0.478674	0.713413
0	O	0.026761	0.431669	0.622865
0	O	0.0294291	0.440045	0.741657
0	H	0.0635736	0.428104	0.743899
0	H	0.0751191	0.385785	0.679776
0	H	0.78626	0.618844	0.68881
0	C	0.895734	0.556775	0.620063
0	C	0.89112	0.616113	0.698649
0	O	0.908803	0.569372	0.624329
0	O	0.895337	0.49955	0.726367
0	H	0.811109	0.586184	0.736117
0	H	0.862104	0.508333	0.706963
0	O	0.858135	0.513344	0.719177
0	H	0.865917	0.524958	0.721909
0	F	0.926608	0.598144	0.644128
0	O	0.864633	0.576436	0.726172
0	O	0.849005	0.596726	0.672246
0	C	0.831112	0.598829	0.667689
0	Fe	0.857168	0.586564	0.699072
0	O	0.843637	0.608503	0.711149
0	O	0.870556	0.562308	0.687183
0	O	0.88416	0.599333	0.697384
0	O	0.832345	0.56924	0.699581
0	H	0.833773	0.558612	0.709537
0	H	0.869118	0.55322	0.698022
0	H	0.884601	0.564887	0.685338
0	C	0.896889	0.526472	0.640051
0	C	0.899841	0.50601	0.642225
0	H	0.892166	0.534775	0.652945
0	C	0.925087	0.601805	0.701874
0	H	0.918631	0.589475	0.708575
0	H	0.830206	0.562823	0.687765
0	C	0.945639	0.604681	0.7026
0	C	0.896371	0.496527	0.661057
0	C	0.874575	0.585844	0.738681
0	O	0.874781	0.604889	0.739271
0	C	0.825223	0.605506	0.647853
0	Fe	0.815704	0.610632	0.707211
0	Fe	0.906057	0.599254	0.625836
0	O	0.817586	0.597536	0.680845
0	O	0.885668	0.59568	0.647555
0	H	0.891334	0.602418	0.658093
0	H	0.845607	0.587789	0.63144
0	C	0.834634	0.599435	0.630575
0	O	0.8104	0.584121	0.722174
0	O	0.949366	0.605525	0.735656
0	C	0.904249	0.49451	0.62536
0	O	0.889394	0.505505	0.675798
0	C	0.913209	0.618394	0.697142
0	C	0.900078	0.535354	0.621968
0	H	0.080858	0.49637	0.664773
0	H	0.110894	0.499355	0.721748
0	H	0.107383	0.610305	0.659121
0	H	0.0651914	0.600519	0.66518
0	C	0.955168	0.597764	0.720509
0	F	0.00852428	0.500089	0.712752
0	H	0.965192	0.535549	0.734056
0	O	0.969957	0.587016	0.721217
0	C	0.0429764	0.552184	0.730919
0	O	0.00647223	0.570457	0.734424
0	O	0.0443903	0.514095	0.722307
0	O	0.102624	0.597905	0.653883
0	O	0.0388779	0.585468	0.631132
0	C	0.0405523	0.572322	0.733229
0	C	0.0610911	0.544158	0.728828
0	Fe	0.082641	0.602834	0.631824
0	C	0.0786652	0.556204	0.729077
0	H	0.0300418	0.544051	0.729921
0	C	0.0932296	0.591541	0.733742
0	O	0.0611826	0.606729	0.652413
0	C	0.0762709	0.576993	0.732136
0	O	0.078867	0.573103	0.629852
0	O	0.972538	0.546166	0.72672
0	O	0.0742552	0.510953	0.734325
0	C	0.0572172	0.584816	0.733966
0	C	0.0608381	0.522194	0.728098
0	O	0.0990274	0.602154	0.72014
0	H	0.0928573	0.550865	0.726877
0	H	0.0273623	0.575586	0.629245
0	H	0.110764	0.550642	0.628762
0	H	0.985059	0.539486	0.724954
0	H	0.0556976	0.600263	0.738647
0	H	0.114338	0.593313	0.646878
0	C	0.0218749	0.578883	0.740882
0	O	0.114745	0.495399	0.647627
0	C	0.935853	0.381669	0.744738
0	O	0.79232	0.464957	0.759824
0	O	0.920916	0.482809	0.74548
0	C	0.79165	0.402694	0.866891
0	H	0.934459	0.487877	0.746576
0	O	0.864909	0.408983	0.864448
0	H	0.945688	0.387053	0.838743
0	H	0.798779	0.471995	0.770508
0	C	0.862582	0.45225	0.861579
0	O	0.935221	0.381471	0.828908
0	O	0.846003	0.466873	0.783193
0	H	0.846166	0.462143	0.796733
0	O	0.80965	0.396735	0.820506
0	O	0.842788	0.41112	0.84096
0	O	0.913008	0.448343	0.769072
0	O	0.888109	0.436667	0.752203
0	C	0.905005	0.435001	0.759216
0	Fe	0.867148	0.452521	0.766836
0	O	0.883026	0.44684	0.791815
0	Fe	0.906802	0.479018	0.771242
0	O	0.881042	0.476239	0.759874
0	O	0.932974	0.482948	0.784806
0	O	0.893663	0.476383	0.798075
0	C	0.887509	0.460281	0.804252
0	F	0.85387	0.429653	0.772179
0	C	0.881104	0.473045	0.839458
0	C	0.881338	0.458092	0.825218
0	C	0.863632	0.437632	0.847076
0	C	0.871554	0.441145	0.828834
0	H	0.871554	0.429156	0.817915
0	C	0.933139	0.411012	0.765934
0	C	0.915997	0.416166	0.75606
0	H	0.88804	0.486549	0.837106
0	C	0.856308	0.418674	0.851523
0	O	0.807411	0.409137	0.859937
0	Fe	0.82276	0.388549	0.846353
0	C	0.87168	0.470673	0.857349
0	H	0.815006	0.409113	0.817453
0	H	0.813855	0.388312	0.810326
0	H	0.811126	0.442992	0.789387
0	O	0.805804	0.432349	0.780606
0	H	0.812216	0.433007	0.767978
0	H	0.937718	0.420804	0.77781
0	C	0.944054	0.394485	0.7595
0	H	0.803389	0.458563	0.753084
0	O	0.842774	0.489311	0.751554
0	O	0.948374	0.381673	0.78972
0	H	0.93373	0.392611	0.819561
0	H	0.931081	0.4869	0.79875
0	H	0.9373	0.469354	0.786317
0	O	0.0712014	0.476983	0.867953
0	C	0.956574	0.383973	0.773398
0	O	0.974011	0.370393	0.821668
0	C	0.991481	0.369746	0.816872
0	C	0.116837	0.429883	0.782693
0	O	0.0824246	0.43153	0.864711
0	O	0.0711614	0.438675	0.749277
0	H	0.0392477	0.414395	0.860164
0	H	0.987425	0.381626	0.854663
0	C	0.0237726	0.389306	0.821246
0	C	0.0816165	0.480269	0.767247
0	O	0.0254531	0.471173	0.77254
0	H	0.0718608	0.457214	0.824511
0	O	0.046269	0.437143	0.783253
0	O	0.104718	0.431283	0.813094
0	C	0.0185679	0.487868	0.76882
0	O	0.102796	0.405215	0.842744
0	C	0.00575613	0.381956	0.828452
0	O	0.0660013	0.473636	0.774989
0	Fe	0.0973939	0.38443	0.823734
0	Fe	0.0479514	0.455936	0.758763
0	O	0.100267	0.402953	0.799293
0	H	0.0274858	0.386457	0.806079
0	O	0.0826343	0.459789	0.834167
0	C	0.0302	0.40514	0.852515
0	Fe	0.0934801	0.431292	0.838744
0	H	0.0490644	0.423683	0.781591
0	H	0.00408535	0.48127	0.807987
0	C	0.0135931	0.396071	0.861219
0	C	0.0577498	0.404193	0.829399
0	H	0.0936024	0.467061	0.827353
0	H	0.0575712	0.442562	0.791213
0	H	0.0774578	0.43418	0.76191
0	C	0.00161243	0.385583	0.848695
0	O	0.0879631	0.472477	0.751964
0	C	0.0364632	0.400494	0.833071
0	O	0.0659528	0.421283	0.831157
0	C	0.105842	0.420836	0.79889
0	O	0.0680956	0.388977	0.827112
0	O	0.97079	0.373724	0.76793
0	C	0.0820229	0.492559	0.868653
0	H	0.116306	0.458029	0.794983
0	H	0.11482	0.49346	0.757184
0	H	0.794556	0.608227	0.768299
0	H	0.853006	0.602489	0.840342
0	O	0.882707	0.503846	0.866951
0	O	0.900583	0.619141	0.833077
0	O	0.858342	0.615655	0.844032
0	H	0.840004	0.499811	0.760645
0	O	0.794814	0.594386	0.812973
0	H	0.869105	0.548287	0.749072
0	O	0.874166	0.516117	0.758482
0	H	0.907533	0.598666	0.757708
0	C	0.902994	0.58334	0.761457
0	C	0.885746	0.575222	0.75317
0	O	0.941	0.593319	0.773796
0	C	0.936744	0.577287	0.765596
0	O	0.871935	0.603427	0.804628
0	O	0.810372	0.556841	0.815075
0	O	0.803038	0.576716	0.854645
0	H	0.819996	0.567659	0.813463
0	H	0.80759	0.552927	0.801744
0	O	0.902847	0.50916	0.772105
0	C	0.890093	0.520975	0.765221
0	F	0.927614	0.527889	0.84876
0	C	0.938265	0.597965	0.850202
0	C	0.88166	0.555187	0.755266
0	C	0.894809	0.54209	0.765296
0	C	0.917231	0.569875	0.767674
0	C	0.91339	0.549749	0.771845
0	H	0.925519	0.540948	0.777427
0	O	0.947864	0.567826	0.753941
0	H	0.871575	0.606645	0.790999
0	O	0.796178	0.607065	0.848527
0	C	0.804375	0.59473	0.860541
0	H	0.926867	0.592861	0.858715
0	H	0.85834	0.598549	0.805838
0	C	0.935328	0.615961	0.840692
0	Fe	0.950334	0.528188	0.862621
0	C	0.983124	0.508183	0.836804
0	C	0.0794586	0.533704	0.777557
0	H	0.0981441	0.528889	0.86268
0	H	0.0454924	0.561573	0.866901
0	Fe	0.977124	0.569614	0.744758
0	C	0.052002	0.512411	0.868043
0	F	0.0263217	0.59644	0.792726
0	C	0.0751907	0.513561	0.780243
0	C	0.0413344	0.613831	0.862529
0	C	0.0971753	0.539701	0.768584
0	C	0.0823268	0.528768	0.863859
0	O	0.119446	0.515296	0.812848
0	H	0.113665	0.528076	0.808544
0	O	0.0199043	0.495125	0.751015
0	C	0.00177943	0.495759	0.803494
0	O	0.100145	0.595206	0.750222
0	H	0.101064	0.592461	0.785031
0	O	0.956245	0.553807	0.849113
0	C	0.956048	0.587661	0.847245
0	O	0.109826	0.598476	0.840773
0	C	0.0204347	0.619259	0.859187
0	O	0.980654	0.591413	0.762654
0	H	0.984173	0.588227	0.836261
0	C	0.966802	0.611584	0.825192
0	H	0.102334	0.553878	0.773512
0	C	0.00753079	0.520217	0.779098
0	C	0.052578	0.547798	0.866009
0	H	0.981615	0.540397	0.815266
0	C	0.110088	0.52534	0.761442
0	C	0.990779	0.509886	0.815731
0	C	0.993525	0.55166	0.780808
0	C	0.0727754	0.546974	0.863222
0	Fe	0.00398518	0.594235	0.778379
0	H	0.0813287	0.601933	0.784408
0	O	0.988569	0.597981	0.802783
0	O	0.0949892	0.605084	0.788206
0	O	0.0534271	0.544979	0.797262
0	C	0.975002	0.610294	0.805498
0	C	0.0716612	0.511455	0.867232
0	O	0.00523702	0.565656	0.785108
0	O	0.0528986	0.613592	0.848362
0	C	0.00823552	0.500402	0.784162
0	C	0.989632	0.529286	0.807423
0	O	0.965244	0.513919	0.839659
0	Fe	0.0812026	0.604926	0.846766
0	C	0.996284	0.53318	0.788881
0	C	0.105524	0.505592	0.762534
0	H	0.0608086	0.508879	0.785716
0	O	0.995254	0.504174	0.850754
0	F	0.0768224	0.601527	0.821063
0	O	0.0993799	0.567803	0.866454
0	O	0.0712472	0.567101	0.779939
0	O	0.0216541	0.591654	0.75509
0	O	0.98256	0.551556	0.766611
0	C	0.0886053	0.499943	0.771863
0	H	0.0159464	0.525823	0.767008
0	C	0.970998	0.595922	0.837937
0	Fe	0.962213	0.612311	0.763032
0	C	0.959805	0.569521	0.857618
0	C	0.0667973	0.548628	0.785872
0	H	0.0626021	0.577056	0.787551
0	O	0.0728742	0.578365	0.852856
0	C	0.0826716	0.56485	0.86049
0	H	0.0440523	0.499191	0.868977
0	C	0.0417604	0.530364	0.868482
0	O	0.832089	0.401611	0.907904
0	C	0.850489	0.400345	0.912852
0	Fe	0.877328	0.485971	0.951454
0	O	0.893803	0.472244	0.930538
0	C	0.911678	0.469331	0.929542
0	O	0.922701	0.470696	0.943926
0	O	0.898326	0.489224	0.969313
0	Fe	0.91853	0.470114	0.972541
0	O	0.871053	0.459686	0.96449
0	O	0.94214	0.450118	0.974144
0	O	0.90034	0.446577	0.965628
0	C	0.882141	0.444909	0.962633
0	F	0.854863	0.482883	0.93759
0	C	0.832288	0.400754	0.981196
0	C	0.932489	0.446208	0.914096
0	C	0.936754	0.470053	0.880989
0	C	0.919699	0.46148	0.911332
0	C	0.921148	0.472921	0.893938
0	H	0.932832	0.438121	0.926972
0	C	0.861205	0.417654	0.972477
0	C	0.872212	0.426093	0.957781
0	C	0.856353	0.406365	0.933535
0	C	0.869896	0.420949	0.938266
0	C	0.848755	0.401954	0.968574
0	H	0.912561	0.485066	0.892604
0	H	0.861255	0.425447	0.986104
0	C	0.948087	0.443702	0.900636
0	H	0.844343	0.464999	0.987445
0	C	0.846977	0.396175	0.948687
0	H	0.835703	0.386421	0.944447
0	H	0.877095	0.429445	0.92598
0	O	0.863226	0.392426	0.901162
0	Fe	0.817889	0.378781	0.89445
0	O	0.815263	0.400948	0.973203
0	F	0.801019	0.437783	0.958992
0	Fe	0.796327	0.423135	0.981074
0	O	0.793033	0.393115	0.883228
0	C	0.948408	0.487396	0.874806
0	C	0.948301	0.453258	0.883312
0	O	0.869065	0.483461	0.889319
0	H	0.935336	0.4374	0.973924
0	H	0.9501	0.450468	0.962027
0	O	0.939905	0.492055	0.975061
0	O	0.818231	0.438337	0.993879
0	O	0.800542	0.375106	0.91766
0	H	0.804455	0.384971	0.927322
0	H	0.8553	0.450382	0.875607
0	F	0.890981	0.381955	0.873889
0	C	0.873124	0.486464	0.871838
0	Fe	0.863224	0.381423	0.872622
0	O	0.834167	0.38135	0.870785
0	H	0.975716	0.377642	0.948929
0	C	0.0447365	0.413904	0.985838
0	H	0.0324259	0.404783	0.983663
0	C	0.0514806	0.455112	0.907187
0	C	0.0925138	0.480687	0.934382
0	H	0.0535403	0.47489	0.932251
0	O	0.974124	0.391492	0.945875
0	Fe	0.985524	0.395568	0.918071
0	C	0.0822158	0.466298	0.922291
0	C	0.0820804	0.442155	0.895367
0	C	0.0310486	0.450266	0.908809
0	O	0.0261406	0.434811	0.901189
0	O	0.0416217	0.42687	0.941173
0	O	0.0167889	0.436454	0.959351
0	C	0.0643756	0.440972	0.974899
0	O	0.107505	0.422172	0.881986
0	O	0.99318	0.400377	0.888853
0	C	0.0773394	0.438201	0.990405
0	C	0.010243	0.397847	0.882646
0	O	0.0243051	0.395716	0.8942
0	O	0.963564	0.415844	0.912929
0	O	0.00443557	0.477442	0.883447
0	C	0.0616066	0.466829	0.921387
0	H	0.991665	0.47022	0.962023
0	O	0.0323402	0.389044	0.935688
0	C	0.0621194	0.445125	0.893067
0	C	0.0478183	0.429475	0.972809
0	H	0.996918	0.478111	0.940857
0	C	0.092845	0.453507	0.909486
0	Fe	0.998002	0.440842	0.936642
0	C	0.0348335	0.432234	0.956761
0	H	0.0609592	0.400547	0.899747
0	H	0.0678354	0.451727	0.964431
0	H	0.979442	0.426676	0.964371
0	H	0.0647771	0.400833	0.922454
0	O	0.00431394	0.415313	0.926625
0	O	0.98047	0.443837	0.912637
0	O	0.988431	0.468671	0.948016
0	H	0.95991	0.393003	0.945121
0	O	0.0593243	0.409107	0.911265
0	C	0.96546	0.433746	0.907871
0	O	0.974955	0.428105	0.950943
0	Fe	0.0305379	0.411417	0.918201
0	C	0.0912576	0.431107	0.880529
0	O	0.0209844	0.455931	0.923753
0	H	0.108483	0.45442	0.909179
0	H	0.00658706	0.380193	0.97346
0	C	0.0192207	0.376413	0.937272
0	O	0.00584073	0.375025	0.92375
0	H	0.0534678	0.437483	0.882452
0	F	0.967547	0.375653	0.910723
0	C	0.0978009	0.444701	0.989754
0	O	0.111275	0.480034	0.935613
0	O	0.0825879	0.493419	0.946987
0	O	0.102012	0.378863	0.876169
0	H	0.0096248	0.472536	0.870943
0	H	0.960407	0.450125	0.873557
0	H	0.980835	0.399052	0.990558
0	O	0.109466	0.431051	0.993863
0	O	0.966609	0.486	0.873735
0	O	0.100998	0.490544	0.871764
0	H	0.1042	0.475402	0.872656
0	O	0.101877	0.462452	0.990168
0	H	0.0163643	0.480533	0.891227
0	H	0.80388	0.616589	0.936997
0	H	0.949975	0.600145	0.954275
0	C	0.794752	0.616276	0.888558
0	H	0.881098	0.513002	0.879225
0	O	0.858899	0.4987	0.97163
0	C	0.790003	0.556441	0.919764
0	O	0.902698	0.598528	0.962921
0	C	0.903421	0.597481	0.944353
0	O	0.898494	0.612048	0.933312
0	O	0.925693	0.521755	0.971734
0	C	0.940632	0.510722	0.971881
0	O	0.886271	0.510572	0.936548
0	O	0.884351	0.527691	0.963365
0	C	0.889188	0.52694	0.945387
0	C	0.941726	0.550255	0.902168
0	C	0.895716	0.56223	0.942815
0	C	0.922841	0.574332	0.924161
0	C	0.899209	0.543291	0.936321
0	C	0.925847	0.55593	0.917026
0	C	0.913469	0.540952	0.922189
0	C	0.906685	0.577816	0.935483
0	H	0.932409	0.586004	0.920724
0	H	0.916329	0.527734	0.915506
0	H	0.884781	0.565775	0.953191
0	H	0.799408	0.548819	0.930228
0	C	0.826255	0.601275	0.894779
0	H	0.839036	0.594082	0.889252
0	C	0.808568	0.540003	0.893
0	Fe	0.899903	0.512561	0.983816
0	C	0.857307	0.594199	0.987214
0	H	0.822033	0.576398	0.978397
0	O	0.822425	0.532387	0.905317
0	H	0.832118	0.522709	0.896838
0	O	0.936337	0.543604	0.885542
0	C	0.808388	0.60213	0.882118
0	O	0.947418	0.610436	0.965058
0	O	0.845305	0.606098	0.979464
0	C	0.825536	0.61107	0.91425
0	C	0.792117	0.552397	0.900453
0	H	0.940096	0.603111	0.974738
0	O	0.80827	0.535659	0.874645
0	C	0.860508	0.498916	0.990319
0	O	0.875048	0.599039	0.992073
0	O	0.939752	0.503508	0.874913
0	O	0.793593	0.538116	0.992773
0	C	0.830362	0.569665	0.990328
0	H	0.897006	0.549029	0.994414
0	Fe	0.894685	0.618447	0.981485
0	C	0.849488	0.575519	0.99422
0	H	0.942969	0.613118	0.894267
0	C	0.80668	0.61485	0.921501
0	C	0.842679	0.618581	0.928266
0	H	0.0933334	0.501114	0.955463
0	O	0.0873841	0.607116	0.873834
0	C	0.00559742	0.612266	0.871113
0	C	0.0211989	0.531722	0.875719
0	H	0.00962323	0.599576	0.880694
0	O	0.00226409	0.612418	0.986092
0	C	0.0974054	0.586601	0.946848
0	H	0.988696	0.575462	0.917619
0	C	0.99098	0.540497	0.952004
0	O	0.995659	0.574438	0.904213
0	O	0.997815	0.53465	0.911601
0	H	0.00893877	0.569937	0.907696
0	C	0.0451614	0.595926	0.976751
0	O	0.0366735	0.608152	0.965139
0	O	0.97677	0.581509	0.971362
0	C	0.0780747	0.590294	0.917198
0	O	0.0150248	0.517436	0.884786
0	O	0.974128	0.528044	0.877796
0	H	0.964961	0.498981	0.944774
0	H	0.109153	0.589988	0.937417
0	C	0.989249	0.520713	0.920272
0	C	0.959428	0.520088	0.967417
0	Fe	0.988963	0.50364	0.880205
0	C	0.969582	0.512822	0.95109
0	C	0.983208	0.547712	0.969489
0	H	0.049871	0.583759	0.94094
0	O	0.959351	0.551841	0.90689
0	C	0.0994887	0.587292	0.967144
0	H	0.0027098	0.548736	0.944618
0	C	0.0825584	0.589318	0.978596
0	Fe	0.984489	0.551027	0.890327
0	O	0.0730879	0.607927	0.913171
0	C	0.0635542	0.584725	0.94862
0	Fe	0.97543	0.611699	0.975588
0	C	0.98436	0.523733	0.94201
0	Fe	0.106739	0.59058	0.885989
0	O	0.0862683	0.579509	0.904932
0	O	0.97688	0.604717	0.899775
0	C	0.0643221	0.588098	0.969205
0	C	0.0794236	0.584339	0.937424
0	O	0.983371	0.505306	0.910931
0	C	0.966302	0.537806	0.975813
0	C	0.987365	0.567431	0.978192
0	H	0.958474	0.543728	0.987922
0	O	0.999983	0.570355	0.991687
0	H	0.0835809	0.591958	0.994324
0	O	0.0377352	0.591691	0.993649
0	O	0.0105539	0.547245	0.875224
0	C	0.971376	0.613528	0.884683
0	O	0.984065	0.615985	0.947452
0	O	0.0479242	0.611956	0.879881
0	O	0.115658	0.610283	0.906077
0	O	0.971495	0.570135	0.871657
0	H	0.942121	0.371867	0.0288034
0	H	0.938478	0.390215	0.0156733
0	O	0.809924	0.376781	0.0196356
0	C	0.838057	0.473243	0.998902
0	O	0.915143	0.468534	0.0016941
0	C	0.917693	0.483712	0.0122128
0	C	0.917861	0.488189	0.074896
0	C	0.914617	0.467938	0.0453509
0	C	0.912578	0.470486	0.0660001
0	H	0.909317	0.455393	0.0385629
0	H	0.913327	0.489629	0.090199
0	C	0.825564	0.465002	0.0125286
0	C	0.818886	0.474367	0.0288799
0	H	0.808141	0.467814	0.0383911
0	C	0.904331	0.454242	0.0771986
0	C	0.920232	0.483907	0.0341679
0	O	0.90064	0.436938	0.0673731
0	H	0.836023	0.414577	0.0514237
0	H	0.892496	0.427669	0.0770023
0	O	0.833627	0.404398	0.999733
0	O	0.836261	0.402683	0.0423197
0	O	0.903024	0.455348	0.095858
0	C	0.819908	0.445537	0.0105843
0	Fe	0.812042	0.405605	0.0225842
0	O	0.814054	0.435305	0.0249983
0	H	0.833748	0.391824	0.0517746
0	F	0.835416	0.456881	0.101711
0	O	0.797459	0.446088	0.109512
0	O	0.792905	0.405202	0.0465076
0	C	0.844158	0.492419	0.00215838
0	C	0.825884	0.493433	0.0325253
0	O	0.791046	0.408794	0.0040558
0	O	0.947425	0.378542	0.0168123
0	H	0.787825	0.432296	0.0768698
0	O	0.952552	0.434687	0.114564
0	H	0.873986	0.491998	0.0720779
0	H	0.882443	0.374999	0.0562074
0	O	0.8123	0.485558	0.118171
0	C	0.953099	0.451387	0.107283
0	O	0.954326	0.465926	0.117812
0	H	0.95465	0.423975	0.0798987
0	C	0.955181	0.438395	0.0741668
0	H	0.997012	0.431808	0.998629
0	H	0.107872	0.387584	0.0904145
0	C	0.953943	0.45448	0.0861348
0	H	0.957385	0.485946	0.0886136
0	C	0.960815	0.440702	0.0541893
0	F	0.112176	0.406772	0.0253993
0	H	0.0721996	0.480392	0.111803
0	Fe	0.977177	0.385962	0.0252702
0	O	0.982455	0.428909	0.0301473
0	C	0.00508174	0.419701	0.104222
0	O	0.109175	0.474305	0.0319422
0	H	0.0477362	0.395859	0.0950404
0	C	0.0855143	0.443736	0.109513
0	H	0.0906824	0.436587	0.0703365
0	C	0.970556	0.425056	0.0431146
0	H	0.0796486	0.423509	0.0187562
0	C	0.0821118	0.456893	0.0925204
0	O	0.975672	0.405482	0.00194171
0	O	0.0387956	0.416555	0.0328226
0	Fe	0.0102023	0.421749	0.0330752
0	O	0.0095114	0.425952	0.00288225
0	O	0.105357	0.44315	0.0365812
0	O	0.0959371	0.385862	0.0977856
0	O	0.0881294	0.426167	0.106186
0	H	0.991485	0.424152	0.0966787
0	C	0.101864	0.460668	0.041533
0	C	0.0796992	0.490673	0.082951
0	H	0.966786	0.460618	0.0317477
0	C	0.0466913	0.405139	0.0204579
0	O	0.966713	0.407152	0.0461835
0	C	0.0890557	0.451528	0.0738508
0	C	0.0879293	0.486123	0.0648105
0	H	0.0181244	0.453924	0.0510069
0	C	0.037111	0.403082	0.104037
0	C	0.962838	0.475749	0.0590575
0	C	0.0719818	0.42514	0.00504638
0	C	0.0193308	0.406274	0.0721274
0	H	0.0194024	0.437246	0.000344117
0	O	0.00411735	0.394083	0.031465
0	O	0.00803784	0.417847	0.0620332
0	O	0.0437572	0.387101	0.0221924
0	H	0.0286774	0.453119	0.0311987
0	C	0.0559557	0.41333	0.00327737
0	C	0.958365	0.473314	0.0791761
0	C	0.0925247	0.466356	0.0598353
0	C	0.0197267	0.409006	0.0939253
0	O	0.0296959	0.393031	0.0643853
0	O	0.0157195	0.451565	0.0370821
0	C	0.0769612	0.47566	0.0969103
0	C	0.96376	0.459614	0.0464905
0	Fe	0.0232834	0.375411	0.0400556
0	H	0.0869	0.393749	0.0896446
0	H	0.909444	0.610159	0.0156008
0	H	0.795393	0.606775	0.0449671
0	O	0.799747	0.498797	0.057498
0	H	0.872028	0.500415	0.0507593
0	H	0.893854	0.534458	0.0135546
0	C	0.889902	0.523513	0.11606
0	H	0.914174	0.593029	0.00123458
0	C	0.788306	0.551016	0.110402
0	H	0.93381	0.607614	0.0902201
0	C	0.92595	0.501676	0.0434625
0	H	0.792901	0.511753	0.0650796
0	O	0.933716	0.561413	0.11277
0	C	0.879395	0.5862	0.116565
0	C	0.816887	0.504924	0.0490377
0	O	0.866819	0.501254	0.0645667
0	O	0.826621	0.518135	0.0574415
0	O	0.916612	0.500411	0.00516169
0	O	0.876118	0.50401	0.998876
0	O	0.90073	0.536766	0.00100693
0	C	0.923131	0.504387	0.0636276
0	O	0.913645	0.607393	0.00227957
0	H	0.806516	0.571379	0.0946806
0	H	0.931008	0.587608	0.0330184
0	O	0.867114	0.584811	0.102042
0	Fe	0.906861	0.556965	0.097492
0	O	0.882495	0.554775	0.0820676
0	O	0.849291	0.53222	0.0887149
0	O	0.840902	0.56279	0.0785937
0	C	0.804413	0.556268	0.0984096
0	C	0.817565	0.54137	0.0952894
0	C	0.837237	0.546033	0.0868288
0	Fe	0.874637	0.529535	0.0741006
0	O	0.860941	0.53839	0.0494926
0	O	0.919858	0.531898	0.084451
0	O	0.89854	0.527906	0.0597213
0	Fe	0.868497	0.57736	0.0741983
0	O	0.918245	0.571972	0.0762168
0	F	0.85417	0.599012	0.0670966
0	O	0.867697	0.569677	0.0463999
0	O	0.894931	0.594126	0.0687274
0	C	0.860706	0.553788	0.0400225
0	C	0.914291	0.523427	0.0690826
0	C	0.912806	0.587264	0.0678893
0	C	0.800881	0.552645	0.00208181
0	C	0.860199	0.56593	0.00747436
0	C	0.851304	0.554981	0.0212037
0	C	0.821172	0.55617	0.00310304
0	C	0.831689	0.550509	0.0193837
0	H	0.823475	0.542864	0.0297333
0	H	0.875782	0.570322	0.0101519
0	H	0.928993	0.51407	0.0344072
0	C	0.838916	0.501582	0.0197853
0	H	0.84356	0.515811	0.0228626
0	C	0.929105	0.599493	0.0608537
0	C	0.813101	0.521285	0.100078
0	H	0.823836	0.5105	0.09717
0	C	0.937434	0.597654	0.0424967
0	O	0.885357	0.516478	0.0996011
0	C	0.939149	0.60948	0.0753844
0	O	0.896921	0.580659	0.114217
0	C	0.797746	0.515766	0.11226
0	O	0.789727	0.564085	0.0114643
0	O	0.896233	0.540952	0.118036
0	H	0.93825	0.548233	0.11442
0	O	0.117352	0.590644	0.0964606
0	H	0.112679	0.513964	0.00700464
0	O	0.117435	0.53604	0.0689463
0	C	0.957567	0.617449	0.0715411
0	C	0.964966	0.617878	0.0519465
0	O	0.059645	0.546579	0.107288
0	C	0.967272	0.603888	0.0196044
0	F	0.01847	0.57912	0.0282815
0	O	0.0849732	0.5144	0.107412
0	C	0.96897	0.495538	0.0515505
0	O	0.0682973	0.567331	0.0837349
0	C	0.0398285	0.610558	0.115781
0	O	0.106847	0.502408	0.000784626
0	H	0.0916416	0.497706	0.054097
0	H	0.0931549	0.500205	0.00609871
0	C	0.0443372	0.577424	0.108114
0	H	0.969667	0.524114	0.0529888
0	O	0.0773468	0.525594	0.0776976
0	C	0.111494	0.61045	0.068732
0	C	0.0805275	0.512032	0.089765
0	O	0.0999441	0.552468	0.102476
0	O	0.106063	0.577427	0.0688877
0	O	0.961881	0.608802	0.00265779
0	O	0.967878	0.512086	0.0630034
0	C	0.0576151	0.563153	0.0986781
0	Fe	0.0104881	0.595287	0.00713902
0	C	0.111457	0.592422	0.0788092
0	O	0.974124	0.496659	0.0336275
0	C	0.0469307	0.596607	0.103515
0	O	0.984032	0.597459	0.0219175
0	Fe	0.0924333	0.551815	0.0756104
0	C	0.955249	0.607561	0.0378295
0	F	0.0836943	0.55159	0.0498412
0	H	0.059097	0.599988	0.0939836
0	H	0.0847016	0.618789	0.0795928
0	O	0.924039	0.730545	0.168916
0	O	0.906585	0.722678	0.194587
0	C	0.919732	0.732663	0.186574
0	Fe	0.88098	0.71282	0.181314
0	O	0.85361	0.707177	0.171684
0	C	0.845361	0.691052	0.168017
0	O	0.856502	0.676573	0.162261
0	O	0.881144	0.737128	0.158302
0	Fe	0.918595	0.708359	0.14912
0	O	0.895381	0.697866	0.161838
0	Fe	0.886606	0.671026	0.157792
0	O	0.881219	0.688505	0.202855
0	O	0.878005	0.642545	0.151821
0	O	0.888318	0.661817	0.185128
0	C	0.884837	0.669931	0.2015
0	O	0.915851	0.661402	0.156393
0	O	0.933683	0.688205	0.164442
0	C	0.929472	0.669973	0.166937
0	F	0.86829	0.729677	0.198535
0	O	0.918736	0.71847	0.240798
0	C	0.940903	0.659548	0.182615
0	C	0.943226	0.669509	0.200987
0	C	0.814332	0.698135	0.188519
0	C	0.813827	0.672855	0.163194
0	C	0.796488	0.69181	0.195848
0	C	0.824006	0.688004	0.172639
0	H	0.821699	0.709352	0.197011
0	C	0.886171	0.635056	0.218856
0	C	0.885788	0.656389	0.219142
0	C	0.889208	0.665136	0.236979
0	H	0.889491	0.680923	0.237877
0	C	0.893189	0.623391	0.235179
0	H	0.926468	0.717931	0.227997
0	H	0.883638	0.628927	0.204095
0	H	0.935343	0.683413	0.202795
0	O	0.943552	0.684648	0.238586
0	H	0.821748	0.663527	0.153141
0	O	0.903219	0.729636	0.13428
0	O	0.94376	0.717541	0.135275
0	H	0.887128	0.639328	0.141297
0	H	0.865515	0.645536	0.146025
0	C	0.795383	0.667535	0.169323
0	O	0.883522	0.678969	0.128669
0	O	0.916191	0.687776	0.12689
0	O	0.790779	0.640132	0.144806
0	H	0.950767	0.726913	0.14371
0	C	0.948756	0.640775	0.181058
0	H	0.873426	0.689383	0.129911
0	H	0.796371	0.628525	0.205789
0	C	0.889833	0.741026	0.141064
0	H	0.907853	0.710193	0.23765
0	C	0.786945	0.676681	0.186575
0	H	0.946758	0.634203	0.166868
0	H	0.877442	0.668104	0.122005
0	C	0.78666	0.647337	0.161787
0	C	0.786355	0.702324	0.213463
0	H	0.117558	0.659792	0.233328
0	C	0.0509524	0.62864	0.120273
0	C	0.116225	0.63902	0.208359
0	H	0.111006	0.625144	0.179521
0	C	0.954634	0.661565	0.216415
0	H	0.953186	0.706937	0.133037
0	C	0.955292	0.670689	0.236378
0	C	0.96046	0.632923	0.196615
0	C	0.962696	0.643704	0.213955
0	H	0.970555	0.637236	0.226088
0	O	0.0619079	0.697033	0.14791
0	O	0.0569533	0.729294	0.21068
0	H	0.0213406	0.66938	0.146335
0	H	0.0291842	0.686922	0.231613
0	F	0.0274314	0.632703	0.175026
0	O	0.0862371	0.636107	0.152562
0	Fe	0.0917234	0.643613	0.124551
0	C	0.0882513	0.64432	0.187303
0	C	0.108614	0.652763	0.22185
0	C	0.0800496	0.646272	0.166342
0	H	0.0607296	0.717117	0.178235
0	C	0.077111	0.708105	0.144168
0	H	0.0371565	0.691566	0.210008
0	O	0.0443365	0.641498	0.132049
0	Fe	0.0556681	0.71036	0.235336
0	O	0.0298586	0.67497	0.155851
0	O	0.0320896	0.69702	0.222083
0	C	0.0843729	0.678766	0.229429
0	C	0.080464	0.65656	0.201453
0	C	0.0909446	0.662264	0.218087
0	O	0.068717	0.660309	0.162851
0	H	0.0665082	0.663127	0.198013
0	O	0.091715	0.703539	0.133599
0	C	0.0692203	0.729198	0.171772
0	Fe	0.0538898	0.67025	0.139114
0	O	0.0733888	0.691599	0.221054
0	H	0.0255792	0.636538	0.21186
0	C	0.10595	0.634809	0.190651
0	C	0.0780066	0.727021	0.1539
0	H	0.0305451	0.666584	0.167021
0	O	0.0769108	0.667581	0.123325
0	C	0.0126498	0.740905	0.127486
0	C	0.0695825	0.74157	0.204741
0	H	0.0439557	0.733141	0.129553
0	H	0.095468	0.739998	0.131953
0	C	0.089945	0.741335	0.146756
0	O	0.115799	0.658094	0.135486
0	C	0.029064	0.729239	0.123625
0	O	0.0305072	0.623329	0.213205
0	H	0.981604	0.744205	0.122513
0	O	0.115944	0.712403	0.24327
0	H	0.0444254	0.625502	0.210361
0	O	0.992027	0.622728	0.192055
0	F	0.105612	0.619633	0.123867
0	C	0.993472	0.734877	0.119516
0	C	0.930408	0.748374	0.198055
0	H	0.911874	0.748269	0.223497
0	C	0.839304	0.792399	0.130446
0	O	0.832398	0.840449	0.220058
0	H	0.825682	0.830027	0.226756
0	H	0.846368	0.839343	0.224317
0	Fe	0.797636	0.790598	0.152471
0	O	0.800652	0.817137	0.16678
0	O	0.828176	0.786734	0.144524
0	F	0.802015	0.777804	0.176216
0	C	0.866052	0.768267	0.134476
0	H	0.858111	0.762298	0.145282
0	H	0.797115	0.838205	0.20441
0	C	0.923316	0.755387	0.216103
0	C	0.931727	0.771337	0.225027
0	O	0.792263	0.803161	0.128447
0	C	0.883384	0.759896	0.129569
0	C	0.859059	0.785142	0.125011
0	C	0.946551	0.758015	0.189881
0	O	0.797161	0.849419	0.238353
0	O	0.789034	0.763853	0.140247
0	C	0.794926	0.758785	0.122961
0	Fe	0.821116	0.865102	0.233877
0	O	0.789499	0.759154	0.232034
0	C	0.949631	0.778839	0.217492
0	H	0.801449	0.750757	0.230046
0	H	0.943346	0.825484	0.163861
0	H	0.951187	0.753427	0.175975
0	H	0.872354	0.858608	0.145121
0	C	0.922429	0.780173	0.242569
0	H	0.854045	0.866058	0.155157
0	O	0.867942	0.867705	0.154564
0	O	0.11154	0.745559	0.241159
0	C	0.0727968	0.744934	0.183886
0	H	0.957081	0.790866	0.224771
0	H	0.95391	0.844527	0.16113
0	O	0.953732	0.833586	0.169707
0	H	0.98494	0.860842	0.206461
0	O	0.0947035	0.866286	0.137165
0	O	0.0808466	0.74955	0.216799
0	C	0.957096	0.771985	0.19958
0	H	0.10768	0.857588	0.192137
0	C	0.0217125	0.839413	0.230949
0	C	0.0525628	0.807432	0.163663
0	C	0.995536	0.858664	0.218541
0	C	0.972072	0.783129	0.189634
0	C	0.0747828	0.820325	0.190522
0	O	0.107619	0.840377	0.226127
0	C	0.0695444	0.820234	0.170787
0	Fe	0.0180437	0.808	0.135518
0	H	0.0766927	0.835647	0.143888
0	C	0.00423384	0.849651	0.142878
0	C	0.00742897	0.841583	0.217589
0	C	0.098221	0.846485	0.185947
0	H	0.0900788	0.771573	0.186167
0	H	0.066284	0.811711	0.200446
0	O	0.0185177	0.776577	0.12991
0	C	0.0921651	0.848302	0.16697
0	O	0.0184581	0.83786	0.139946
0	O	0.987292	0.843309	0.14711
0	O	0.968542	0.800549	0.184287
0	O	0.0151842	0.762351	0.157087
0	H	0.0771805	0.78227	0.23252
0	H	0.03265	0.827257	0.230776
0	C	0.0905637	0.835465	0.219658
0	C	0.00420466	0.82642	0.20128
0	O	0.0464656	0.810036	0.146301
0	C	0.0857773	0.758611	0.177305
0	O	0.00605598	0.805654	0.160692
0	F	0.0237849	0.768573	0.196837
0	H	0.0998942	0.78079	0.233631
0	C	0.0781368	0.83446	0.159446
0	O	0.0443298	0.796121	0.175759
0	Fe	0.015189	0.786605	0.178856
0	Fe	0.980803	0.819813	0.165444
0	C	0.0877732	0.83383	0.198397
0	C	0.0950671	0.756598	0.15956
0	O	0.991783	0.832828	0.188665
0	C	0.015386	0.760715	0.138523
0	O	0.013113	0.809605	0.200414
0	O	0.9883	0.775281	0.185542
0	O	0.968841	0.804242	0.143604
0	O	0.0754399	0.832563	0.230549
0	C	0.976684	0.801139	0.127752
0	C	0.0997395	0.865429	0.155413
0	C	0.113509	0.766513	0.154878
0	O	0.0880161	0.779197	0.242032
0	H	0.0334305	0.867709	0.127993
0	O	0.992933	0.807824	0.122368
0	C	0.0261211	0.855018	0.244348
0	O	0.118722	0.765399	0.137664
0	C	0.905587	0.677165	0.369354
0	O	0.864641	0.623383	0.307832
0	O	0.796155	0.66541	0.345605
0	C	0.810533	0.668904	0.355997
0	C	0.795457	0.716338	0.29173
0	O	0.941188	0.662219	0.306359
0	O	0.912434	0.684699	0.265496
0	O	0.928554	0.657132	0.268668
0	C	0.913248	0.665839	0.263462
0	Fe	0.935864	0.7034	0.260332
0	O	0.926025	0.723637	0.27983
0	C	0.92564	0.723456	0.29818
0	C	0.912854	0.668653	0.335732
0	C	0.9315	0.675629	0.33741
0	H	0.909151	0.661985	0.322308
0	C	0.809992	0.729477	0.297948
0	C	0.815351	0.731026	0.318675
0	C	0.80301	0.720905	0.332354
0	C	0.899966	0.633773	0.251303
0	C	0.899013	0.654422	0.251757
0	O	0.825962	0.67936	0.347898
0	H	0.907229	0.625393	0.262404
0	C	0.944961	0.673269	0.321002
0	H	0.931532	0.636551	0.339409
0	O	0.93449	0.711016	0.308622
0	O	0.880422	0.643603	0.337537
0	H	0.806322	0.723768	0.347657
0	C	0.935857	0.686799	0.354179
0	C	0.900649	0.667395	0.352484
0	C	0.884684	0.652445	0.353103
0	H	0.822843	0.680514	0.332809
0	C	0.943635	0.628851	0.333072
0	H	0.951034	0.692168	0.355884
0	H	0.877312	0.732387	0.338221
0	O	0.952102	0.690373	0.279005
0	H	0.81482	0.740512	0.287911
0	H	0.890463	0.741775	0.300518
0	C	0.789196	0.707911	0.326261
0	H	0.94489	0.626459	0.284152
0	C	0.920986	0.741516	0.30807
0	O	0.952441	0.649245	0.368998
0	C	0.788482	0.703179	0.30644
0	H	0.853861	0.632423	0.31069
0	H	0.88891	0.740461	0.357005
0	O	0.885483	0.743081	0.343185
0	O	0.843931	0.744273	0.334421
0	O	0.878337	0.645169	0.368739
0	H	0.0910794	0.650652	0.354899
0	H	0.11398	0.740213	0.342061
0	Fe	0.954498	0.66253	0.27994
0	O	0.0374849	0.728894	0.248769
0	H	0.968488	0.629147	0.289083
0	O	0.0812095	0.647453	0.364858
0	Fe	0.0627729	0.722135	0.369202
0	H	0.00113749	0.727922	0.249853
0	O	0.0905246	0.68133	0.246857
0	O	0.957742	0.632816	0.280834
0	O	0.959932	0.683315	0.320216
0	C	0.978983	0.623946	0.332907
0	H	0.993264	0.629708	0.336023
0	O	0.989288	0.696143	0.294491
0	C	0.0517363	0.682554	0.309153
0	Fe	0.0962515	0.706546	0.263198
0	C	0.96494	0.649316	0.355232
0	O	0.0775876	0.722697	0.24853
0	O	0.0535807	0.704726	0.345478
0	C	0.967562	0.733192	0.266099
0	C	0.0131226	0.674582	0.300935
0	C	0.993692	0.678379	0.295366
0	C	0.962374	0.634481	0.339408
0	O	0.0526045	0.690889	0.258302
0	O	0.964543	0.662575	0.251042
0	C	0.0457989	0.681882	0.29005
0	H	0.00884634	0.677065	0.332548
0	O	0.982142	0.664395	0.292076
0	Fe	0.96164	0.705393	0.300542
0	O	0.958929	0.722188	0.253661
0	O	0.0490651	0.675665	0.357444
0	H	0.0664217	0.685148	0.311639
0	C	0.0261789	0.678242	0.285987
0	C	0.0461855	0.68798	0.343879
0	O	0.0738027	0.69988	0.28118
0	H	0.0218943	0.675301	0.270319
0	O	0.0903356	0.720581	0.361194
0	O	0.107559	0.730231	0.28047
0	O	0.965731	0.730246	0.284045
0	C	0.0579414	0.691046	0.275893
0	C	0.0193177	0.677669	0.320578
0	C	0.0987174	0.70615	0.354162
0	F	0.9708	0.719507	0.321447
0	C	0.0389756	0.680921	0.324437
0	O	0.0913323	0.688776	0.355003
0	F	0.11315	0.691984	0.278242
0	F	0.059435	0.742144	0.352124
0	C	0.999935	0.743331	0.254786
0	O	0.981619	0.66081	0.357148
0	H	0.979175	0.670491	0.368807
0	H	0.0693993	0.642744	0.358097
0	C	0.118148	0.709954	0.345274
0	O	0.906385	0.773876	0.250153
0	O	0.931825	0.796677	0.251122
0	F	0.796897	0.785979	0.361271
0	C	0.906914	0.813101	0.364133
0	C	0.798603	0.857705	0.299265
0	H	0.922947	0.798383	0.264912
0	O	0.832013	0.85488	0.259842
0	O	0.817358	0.762786	0.334369
0	C	0.826501	0.747637	0.328729
0	Fe	0.822603	0.786056	0.352919
0	O	0.849017	0.787143	0.343317
0	Fe	0.865475	0.765089	0.343667
0	O	0.839629	0.828567	0.345571
0	O	0.867207	0.768399	0.315071
0	C	0.881347	0.779166	0.310453
0	O	0.878543	0.797278	0.311836
0	O	0.888753	0.785727	0.35162
0	C	0.890057	0.804483	0.354487
0	O	0.877493	0.816812	0.34765
0	Fe	0.856439	0.810455	0.328357
0	O	0.863322	0.836384	0.312819
0	O	0.811627	0.801843	0.332098
0	O	0.834695	0.80172	0.310064
0	C	0.817738	0.806327	0.315393
0	H	0.864515	0.832527	0.298326
0	H	0.876136	0.841761	0.317181
0	C	0.903154	0.750609	0.304946
0	C	0.937231	0.752395	0.313528
0	C	0.90103	0.770567	0.306635
0	C	0.935949	0.772064	0.312148
0	C	0.917581	0.781501	0.30935
0	H	0.91662	0.797346	0.312503
0	C	0.814113	0.827727	0.288746
0	C	0.804645	0.817368	0.303129
0	C	0.813316	0.847942	0.289062
0	H	0.825609	0.820346	0.279914
0	C	0.834699	0.826224	0.363281
0	H	0.93695	0.829876	0.330407
0	H	0.897325	0.843341	0.361345
0	O	0.950537	0.801499	0.310186
0	C	0.825065	0.860441	0.276446
0	H	0.951195	0.745002	0.314619
0	C	0.908751	0.833836	0.366727
0	H	0.942526	0.852397	0.324725
0	O	0.947721	0.839037	0.328215
0	H	0.859385	0.860686	0.363026
0	H	0.790005	0.764212	0.245876
0	C	0.788634	0.826157	0.312814
0	F	0.949235	0.832621	0.28628
0	O	0.828591	0.809202	0.368756
0	C	0.0477047	0.831925	0.342038
0	C	0.994792	0.781395	0.269211
0	O	0.977793	0.809132	0.281936
0	O	0.00500453	0.801628	0.295405
0	C	0.116826	0.815749	0.265331
0	O	0.0490008	0.841071	0.264477
0	O	0.0803964	0.827481	0.290461
0	O	0.024541	0.805566	0.333376
0	O	0.0623952	0.802296	0.260056
0	C	0.116178	0.764735	0.286934
0	O	0.971686	0.777211	0.315068
0	Fe	0.0823538	0.749819	0.245266
0	H	0.0421679	0.852976	0.365904
0	C	0.102367	0.747859	0.281136
0	H	0.108369	0.806577	0.33382
0	C	0.110594	0.783574	0.280671
0	O	0.0896719	0.853847	0.261115
0	H	0.0208769	0.755975	0.36475
0	C	0.0165979	0.755671	0.256551
0	Fe	0.115623	0.856499	0.250248
0	Fe	0.0768288	0.828569	0.26089
0	O	0.991072	0.779287	0.348443
0	H	0.0257981	0.783277	0.264359
0	H	0.018422	0.76197	0.32992
0	H	0.957907	0.810009	0.359375
0	H	0.0509209	0.805327	0.252602
0	Fe	0.986368	0.828921	0.351285
0	H	0.963734	0.771764	0.273242
0	C	0.013055	0.775012	0.262654
0	O	0.0528429	0.757173	0.247819
0	O	0.983811	0.81445	0.327333
0	C	0.0503416	0.849393	0.352853
0	C	0.0278349	0.822213	0.341023
0	H	0.108082	0.782764	0.335322
0	O	0.957971	0.824106	0.360056
0	C	0.953923	0.783952	0.312861
0	O	0.0857781	0.751471	0.274415
0	O	0.982345	0.848852	0.303301
0	C	0.993009	0.799016	0.281486
0	H	0.0638304	0.813137	0.32097
0	C	0.982519	0.85967	0.318136
0	H	0.0580738	0.797333	0.27311
0	O	0.0138173	0.833031	0.346741
0	C	0.0752049	0.842219	0.300863
0	C	0.978883	0.767909	0.268255
0	O	0.0161519	0.769059	0.317249
0	O	0.99347	0.805228	0.367982
0	O	0.114994	0.79428	0.329837
0	Fe	0.965653	0.824621	0.306493
0	C	0.0436154	0.855985	0.254905
0	C	0.0743297	0.841595	0.321397
0	O	0.0662615	0.85573	0.292483
0	C	0.0368418	0.747507	0.250258
0	O	0.100892	0.813798	0.255976
0	H	0.00796522	0.760333	0.309557
0	O	0.980504	0.852927	0.335745
0	C	0.994524	0.78678	0.364645
0	C	0.0642531	0.863955	0.347591
0	C	0.0629415	0.826416	0.328929
0	C	0.0766969	0.859112	0.331671
0	C	0.981505	0.749141	0.261199
0	H	0.0954787	0.785179	0.276577
0	Fe	0.998212	0.792154	0.322862
0	O	0.811171	0.659254	0.467808
0	O	0.82275	0.675788	0.441251
0	C	0.80884	0.6684	0.451277
0	Fe	0.851965	0.678312	0.448713
0	O	0.880858	0.682168	0.454419
0	C	0.89445	0.669428	0.454507
0	O	0.892357	0.653048	0.445877
0	O	0.845399	0.69302	0.474124
0	Fe	0.83524	0.645777	0.482122
0	O	0.852519	0.652429	0.460862
0	Fe	0.870537	0.632769	0.449853
0	O	0.85728	0.666965	0.420723
0	O	0.855046	0.635029	0.424059
0	C	0.849891	0.65086	0.415486
0	F	0.850743	0.702011	0.436812
0	C	0.920373	0.693344	0.453365
0	C	0.923787	0.668733	0.478945
0	C	0.91453	0.67535	0.461317
0	H	0.91226	0.697614	0.439946
0	C	0.815801	0.641019	0.411342
0	C	0.797621	0.640038	0.401315
0	C	0.832418	0.650199	0.403147
0	O	0.93656	0.737452	0.471935
0	C	0.938691	0.680028	0.488859
0	C	0.933872	0.705081	0.464026
0	C	0.935049	0.72527	0.458087
0	C	0.830254	0.660602	0.385899
0	C	0.796063	0.649308	0.382864
0	C	0.942928	0.698418	0.481092
0	O	0.919148	0.699344	0.402917
0	O	0.931141	0.729529	0.440754
0	C	0.930307	0.694894	0.389266
0	H	0.818412	0.632738	0.423847
0	O	0.88213	0.629656	0.474883
0	H	0.841588	0.669953	0.379876
0	C	0.812496	0.659727	0.375799
0	H	0.897363	0.675896	0.383386
0	H	0.794058	0.67768	0.41362
0	O	0.916491	0.636727	0.38372
0	F	0.885413	0.632198	0.404158
0	H	0.914832	0.6483	0.391748
0	O	0.949757	0.697834	0.390412
0	C	0.847479	0.687995	0.49156
0	O	0.826468	0.620595	0.469628
0	H	0.914806	0.624948	0.485411
0	H	0.952628	0.704072	0.405003
0	F	0.933652	0.738843	0.402315
0	H	0.925085	0.629514	0.392677
0	H	0.951104	0.708798	0.489904
0	C	0.787805	0.671051	0.443726
0	H	0.918602	0.656155	0.486921
0	C	0.875019	0.629743	0.491897
0	Fe	0.890637	0.620176	0.381363
0	C	0.923431	0.686451	0.370091
0	O	0.0344412	0.724883	0.376309
0	C	0.00863312	0.629657	0.437742
0	H	0.0403822	0.632247	0.389294
0	H	0.0504658	0.695528	0.44811
0	O	0.056421	0.707204	0.443432
0	C	0.043594	0.66386	0.408073
0	C	0.0978361	0.677715	0.411874
0	C	0.0294715	0.729729	0.392842
0	C	0.0300758	0.647886	0.415307
0	O	0.095928	0.673406	0.393741
0	O	0.0382577	0.724005	0.408459
0	C	0.0314422	0.631509	0.402584
0	H	0.0239889	0.657227	0.444729
0	H	0.0453973	0.715304	0.446097
0	O	0.0416286	0.681021	0.415053
0	O	0.0562159	0.659749	0.395221
0	C	0.0208005	0.646493	0.433952
0	O	0.0836427	0.685787	0.421119
0	H	0.110599	0.691345	0.446195
0	O	0.0815712	0.726296	0.414173
0	Fe	0.0726286	0.675689	0.375977
0	O	0.0655255	0.700139	0.386104
0	Fe	0.0608528	0.704032	0.413693
0	F	0.0969105	0.7276	0.483666
0	O	0.989153	0.628731	0.468954
0	H	0.00275222	0.736479	0.423016
0	C	0.00378471	0.623439	0.458159
0	C	0.0825458	0.741727	0.403694
0	O	0.0718921	0.743209	0.388742
0	C	0.013549	0.744051	0.393369
0	C	0.116512	0.67318	0.421257
0	O	0.787213	0.860155	0.457937
0	H	0.879165	0.750575	0.400992
0	O	0.802368	0.837077	0.42897
0	C	0.825031	0.840447	0.3948
0	C	0.817238	0.848918	0.428373
0	C	0.935553	0.795887	0.407962
0	Fe	0.793389	0.814639	0.448659
0	O	0.810231	0.824734	0.468872
0	Fe	0.822965	0.807927	0.487673
0	O	0.84814	0.817364	0.481896
0	C	0.853581	0.83521	0.482103
0	C	0.874144	0.838596	0.479382
0	C	0.908938	0.836363	0.457999
0	C	0.916683	0.805904	0.471633
0	C	0.887282	0.823159	0.482922
0	C	0.905096	0.822561	0.472558
0	O	0.815969	0.797064	0.438185
0	O	0.828491	0.787467	0.465724
0	O	0.897552	0.755195	0.455806
0	O	0.905867	0.759142	0.424112
0	C	0.868241	0.756697	0.410704
0	C	0.857992	0.765316	0.443747
0	C	0.850035	0.761911	0.404008
0	C	0.839421	0.771441	0.437104
0	C	0.835394	0.768013	0.417209
0	C	0.872169	0.757847	0.431399
0	C	0.826801	0.785266	0.447647
0	C	0.892919	0.757147	0.43771
0	C	0.846531	0.763593	0.382523
0	H	0.920344	0.83277	0.446586
0	H	0.859666	0.766686	0.459876
0	H	0.821185	0.772111	0.412184
0	C	0.879424	0.853109	0.467338
0	O	0.841101	0.849565	0.482429
0	O	0.93904	0.777543	0.405699
0	C	0.825752	0.853743	0.410035
0	Fe	0.813911	0.853253	0.470569
0	O	0.825746	0.854531	0.44349
0	C	0.896209	0.851863	0.455577
0	H	0.817769	0.826753	0.396935
0	O	0.907614	0.789475	0.470896
0	H	0.942663	0.833695	0.40397
0	C	0.928952	0.808469	0.391528
0	Fe	0.922218	0.76413	0.471005
0	Fe	0.935198	0.753484	0.425092
0	O	0.9355	0.80758	0.469177
0	O	0.936697	0.770287	0.448488
0	C	0.933181	0.828303	0.392217
0	C	0.922985	0.841695	0.379733
0	C	0.924548	0.86264	0.385688
0	O	0.943688	0.855854	0.461118
0	C	0.836411	0.842442	0.377964
0	C	0.85028	0.857773	0.376475
0	O	0.830307	0.770323	0.376723
0	C	0.917009	0.800665	0.377131
0	O	0.943904	0.773995	0.489457
0	O	0.935277	0.802937	0.425092
0	H	0.913979	0.785012	0.378114
0	H	0.884138	0.811376	0.4932
0	H	0.951918	0.844172	0.467788
0	Fe	0.952454	0.793454	0.448551
0	O	0.932177	0.865094	0.401706
0	O	0.86082	0.758949	0.371297
0	C	0.900497	0.866173	0.441091
0	C	0.938999	0.866786	0.4764
0	H	0.868828	0.864667	0.46517
0	H	0.979589	0.856257	0.373755
0	H	0.00182184	0.851405	0.375911
0	C	0.117264	0.769759	0.434668
0	H	0.092534	0.750909	0.438189
0	C	0.0110807	0.756974	0.377894
0	C	0.00302182	0.7466	0.410506
0	F	0.0487938	0.852953	0.47231
0	O	0.971942	0.781091	0.430363
0	C	0.975767	0.763505	0.425251
0	H	0.981292	0.816372	0.439809
0	C	0.000100751	0.774163	0.380524
0	C	0.0953318	0.758933	0.408689
0	H	0.962144	0.827224	0.437624
0	C	0.105832	0.771065	0.395556
0	C	0.962122	0.779329	0.486656
0	C	0.10044	0.760817	0.428147
0	H	0.100212	0.76994	0.380633
0	O	0.963474	0.748951	0.426713
0	O	0.968068	0.783842	0.470241
0	C	0.991981	0.762898	0.412571
0	H	0.985483	0.79133	0.401486
0	C	0.992159	0.777674	0.398532
0	O	0.969473	0.819591	0.447197
0	O	0.0128216	0.8614	0.489515
0	H	0.108913	0.767368	0.488311
0	C	0.97288	0.869079	0.489782
0	O	0.988028	0.845292	0.376081
0	H	0.0272384	0.86227	0.445347
0	H	0.978794	0.865269	0.476196
0	H	0.869859	0.625172	0.529033
0	H	0.791827	0.676918	0.595779
0	C	0.900386	0.701485	0.617697
0	O	0.844052	0.670882	0.496872
0	O	0.857304	0.632255	0.495666
0	H	0.812816	0.631543	0.599608
0	H	0.831577	0.72032	0.502349
0	O	0.890504	0.622576	0.569919
0	C	0.856205	0.701582	0.504583
0	O	0.816918	0.637982	0.506022
0	O	0.928133	0.710846	0.584883
0	O	0.915657	0.682808	0.575994
0	C	0.920058	0.695039	0.589464
0	Fe	0.92802	0.675206	0.549751
0	O	0.908748	0.652522	0.550799
0	O	0.90739	0.689746	0.534178
0	O	0.909516	0.71976	0.546891
0	C	0.900535	0.706852	0.536712
0	H	0.91556	0.644523	0.540982
0	H	0.896131	0.656928	0.544954
0	Fe	0.87654	0.627739	0.595908
0	O	0.86623	0.653925	0.585659
0	C	0.874473	0.698688	0.513242
0	C	0.870421	0.728227	0.532762
0	C	0.852904	0.732227	0.523826
0	C	0.84609	0.71865	0.509164
0	C	0.880571	0.71086	0.528892
0	H	0.883969	0.68774	0.508439
0	C	0.915035	0.690768	0.609501
0	O	0.947103	0.660269	0.568739
0	H	0.856325	0.658625	0.595427
0	H	0.876608	0.664281	0.586818
0	O	0.936903	0.666349	0.52167
0	Fe	0.937544	0.721485	0.559005
0	O	0.901547	0.641144	0.604433
0	O	0.945765	0.696654	0.549763
0	C	0.947331	0.67581	0.509226
0	O	0.947272	0.733069	0.533804
0	H	0.80498	0.644547	0.502107
0	H	0.823519	0.645689	0.516251
0	H	0.931262	0.664798	0.608731
0	F	0.862887	0.737785	0.598564
0	C	0.889779	0.624465	0.506058
0	H	0.876348	0.736717	0.54404
0	C	0.920802	0.672841	0.616843
0	H	0.895971	0.715526	0.611739
0	C	0.909669	0.622482	0.500624
0	O	0.828339	0.742208	0.616329
0	C	0.816001	0.623046	0.612444
0	C	0.98675	0.657431	0.618908
0	F	0.0846005	0.741322	0.616609
0	H	0.117963	0.652653	0.511549
0	H	0.975577	0.650718	0.501784
0	H	0.997687	0.649645	0.508131
0	C	0.115258	0.733237	0.587661
0	F	0.0751659	0.655473	0.582016
0	Fe	0.0706934	0.631598	0.594724
0	O	0.977057	0.721078	0.53477
0	O	0.0407515	0.636527	0.591507
0	C	0.985342	0.717827	0.611836
0	C	0.973731	0.662043	0.602754
0	O	0.961401	0.68597	0.515356
0	C	0.00759753	0.639527	0.597692
0	C	0.978148	0.716208	0.577405
0	C	0.978029	0.655169	0.584044
0	C	0.964889	0.6595	0.566612
0	F	0.998002	0.688685	0.533301
0	O	0.101496	0.626941	0.59612
0	H	0.961753	0.671404	0.604958
0	O	0.970742	0.662576	0.549847
0	H	0.0943756	0.735909	0.564766
0	C	0.995647	0.644982	0.581488
0	C	0.0252368	0.62697	0.596059
0	C	0.113222	0.691859	0.581343
0	O	0.964078	0.726166	0.571652
0	H	0.982579	0.701935	0.613986
0	H	0.9987	0.637822	0.567045
0	C	0.0884232	0.697634	0.555115
0	C	0.102397	0.72533	0.57377
0	H	0.0789996	0.676532	0.537067
0	O	0.0769541	0.70932	0.546183
0	O	0.984823	0.643193	0.510265
0	Fe	0.972446	0.692049	0.542333
0	O	0.982548	0.699424	0.570553
0	C	0.101682	0.705339	0.570374
0	C	0.988026	0.725736	0.59381
0	O	0.088967	0.678216	0.549347
0	C	0.965751	0.734981	0.532079
0	H	0.112332	0.67606	0.578471
0	C	0.00191678	0.644163	0.616121
0	H	0.0183974	0.626069	0.50014
0	H	0.911267	0.74644	0.499814
0	H	0.819108	0.809256	0.618958
0	O	0.798692	0.797261	0.495892
0	C	0.918046	0.775781	0.61749
0	O	0.801748	0.851589	0.497592
0	O	0.927904	0.868547	0.547655
0	H	0.912336	0.768498	0.505017
0	H	0.792551	0.764515	0.596186
0	O	0.906601	0.758863	0.495682
0	C	0.945062	0.863463	0.543439
0	H	0.917302	0.746875	0.574737
0	O	0.825992	0.754746	0.517623
0	C	0.841956	0.749281	0.528372
0	C	0.931127	0.791287	0.6142
0	C	0.914805	0.861085	0.592272
0	O	0.901132	0.855499	0.58131
0	H	0.81919	0.766495	0.526276
0	O	0.848052	0.761035	0.540874
0	F	0.836036	0.792296	0.505875
0	C	0.807041	0.841194	0.512476
0	O	0.818408	0.826762	0.510718
0	O	0.933088	0.857754	0.588589
0	O	0.922408	0.828174	0.558512
0	O	0.929584	0.791847	0.578981
0	C	0.932925	0.800988	0.595098
0	O	0.88951	0.804529	0.571039
0	O	0.879289	0.832375	0.557497
0	C	0.844836	0.830028	0.582088
0	C	0.854	0.795951	0.588474
0	C	0.8326	0.828802	0.598081
0	C	0.840641	0.795536	0.603796
0	C	0.856825	0.813868	0.577858
0	C	0.876005	0.817057	0.567601
0	Fe	0.914376	0.801702	0.555081
0	O	0.906424	0.772887	0.550008
0	O	0.898567	0.80992	0.531181
0	Fe	0.904031	0.849548	0.552997
0	O	0.902233	0.844238	0.523776
0	H	0.891652	0.852547	0.519393
0	H	0.91436	0.766337	0.605945
0	H	0.847346	0.84429	0.574457
0	H	0.865565	0.785221	0.584581
0	H	0.899495	0.774366	0.537278
0	H	0.895127	0.76995	0.559118
0	H	0.885549	0.803518	0.533629
0	H	0.914363	0.848192	0.517662
0	C	0.828484	0.810617	0.606758
0	O	0.938258	0.798439	0.538753
0	Fe	0.944821	0.83363	0.572753
0	O	0.930436	0.749084	0.568151
0	O	0.934089	0.818987	0.595379
0	H	0.939733	0.752648	0.578409
0	C	0.826627	0.846095	0.60986
0	C	0.798411	0.845487	0.530856
0	O	0.823213	0.862344	0.602139
0	C	0.795641	0.865323	0.535044
0	O	0.859035	0.770082	0.617823
0	C	0.844216	0.780506	0.61933
0	O	0.116459	0.759737	0.497971
0	O	0.116634	0.842758	0.570752
0	H	0.0616395	0.774628	0.598253
0	C	0.0776392	0.810434	0.59073
0	H	0.100855	0.857726	0.6175
0	C	0.974257	0.753871	0.527345
0	O	0.1137	0.76607	0.574721
0	C	0.969704	0.788085	0.535508
0	H	0.983894	0.866911	0.538694
0	C	0.0144338	0.834196	0.618747
0	C	0.991223	0.746086	0.592679
0	C	0.973506	0.792672	0.515836
0	O	0.954139	0.849341	0.551986
0	C	0.955303	0.799611	0.545469
0	C	0.0799745	0.860606	0.535799
0	C	0.971096	0.768526	0.541016
0	C	0.118431	0.75531	0.589038
0	C	0.0226215	0.799154	0.617539
0	C	0.982849	0.778289	0.605574
0	H	0.079191	0.848878	0.524826
0	O	0.0882887	0.824944	0.596927
0	C	0.102909	0.839332	0.559535
0	H	0.963288	0.764585	0.555145
0	C	0.036287	0.784147	0.614365
0	Fe	0.118524	0.832162	0.597862
0	O	0.0955258	0.782582	0.542474
0	O	0.0842138	0.797031	0.579952
0	C	0.978422	0.758081	0.508278
0	H	0.105264	0.77425	0.535413
0	H	0.97935	0.847183	0.582123
0	O	0.111198	0.859039	0.608226
0	H	0.091735	0.792664	0.533187
0	O	0.101691	0.822107	0.552559
0	C	0.0270539	0.818572	0.61194
0	H	0.968737	0.806075	0.50958
0	H	0.976662	0.746523	0.497918
0	H	0.107332	0.755498	0.507947
0	H	0.967494	0.842602	0.601923
0	H	0.0494897	0.837157	0.599733
0	O	0.959628	0.81	0.560127
0	Fe	0.11062	0.794315	0.56607
0	H	0.984845	0.802996	0.590069
0	C	0.0578856	0.806595	0.598299
0	O	0.98465	0.787036	0.5878
0	C	0.97554	0.777394	0.502613
0	O	0.970458	0.837902	0.588911
0	C	0.987394	0.75765	0.608649
0	C	0.0895653	0.85648	0.553838
0	H	0.991309	0.752938	0.577476
0	C	0.0525844	0.787284	0.603098
0	C	0.0452974	0.822321	0.602909
0	C	0.0055218	0.866727	0.505796
0	C	0.97543	0.868525	0.525205
0	C	0.984319	0.867016	0.506774
0	O	0.894904	0.734931	0.692563
0	O	0.881278	0.717477	0.656369
0	C	0.875599	0.70712	0.641293
0	O	0.855457	0.724105	0.686625
0	C	0.837346	0.726148	0.687542
0	O	0.93445	0.696675	0.653042
0	C	0.950174	0.657915	0.690842
0	H	0.924099	0.692016	0.661824
0	O	0.845044	0.650983	0.711073
0	C	0.830881	0.652463	0.698323
0	O	0.820427	0.637923	0.693474
0	C	0.941728	0.638259	0.692633
0	H	0.913404	0.649357	0.689406
0	C	0.892758	0.673576	0.638651
0	H	0.884788	0.665404	0.648954
0	C	0.832645	0.691161	0.696894
0	C	0.825235	0.672512	0.690177
0	C	0.824838	0.708873	0.689615
0	H	0.844721	0.691842	0.706965
0	O	0.919778	0.683995	0.713897
0	C	0.906059	0.681116	0.725916
0	O	0.886231	0.682505	0.719818
0	H	0.885608	0.685886	0.705384
0	C	0.933651	0.726209	0.739705
0	O	0.950594	0.666132	0.674872
0	H	0.905121	0.728653	0.684624
0	C	0.922189	0.636634	0.692637
0	H	0.933915	0.711025	0.652549
0	H	0.799826	0.721411	0.674682
0	C	0.81124	0.673545	0.675299
0	O	0.905382	0.628838	0.63362
0	C	0.807224	0.708471	0.678916
0	O	0.861471	0.712839	0.630995
0	C	0.944264	0.725673	0.721662
0	C	0.889269	0.693258	0.6329
0	O	0.879833	0.630069	0.702714
0	H	0.808566	0.659424	0.667883
0	C	0.801738	0.691191	0.669729
0	C	0.907945	0.66313	0.629224
0	Fe	0.859034	0.627184	0.724686
0	O	0.818371	0.737663	0.645854
0	C	0.804635	0.627996	0.629837
0	H	0.887807	0.723981	0.698702
0	O	0.949941	0.706822	0.692687
0	F	0.874783	0.644893	0.738479
0	C	0.813931	0.741387	0.628825
0	H	0.869635	0.626791	0.632898
0	O	0.829671	0.743315	0.684111
0	O	0.862103	0.633578	0.622436
0	C	0.904738	0.643459	0.622494
0	H	0.86311	0.648292	0.625387
0	Fe	0.87373	0.742504	0.672601
0	C	0.943388	0.74133	0.709012
0	C	0.919901	0.741023	0.743471
0	Fe	0.858689	0.742511	0.624695
0	O	0.81045	0.62491	0.73338
0	H	0.943239	0.680564	0.743747
0	H	0.802841	0.622814	0.660678
0	C	0.810656	0.619681	0.647306
0	C	0.788036	0.642826	0.631615
0	C	0.953589	0.622051	0.695754
0	H	0.95304	0.742001	0.696368
0	C	0.95418	0.709801	0.711376
0	H	0.00294425	0.632658	0.720392
0	C	0.0801832	0.645949	0.636694
0	H	0.00820608	0.719808	0.685371
0	O	0.102019	0.670692	0.718662
0	C	0.0192026	0.659531	0.698277
0	O	0.960176	0.663702	0.706099
0	O	0.0629227	0.722647	0.681238
0	H	0.0574376	0.664207	0.715462
0	C	0.0745474	0.679711	0.65106
0	O	0.99944	0.665746	0.650178
0	C	0.0470336	0.656012	0.724324
0	O	0.0267366	0.671498	0.686142
0	C	0.0901392	0.666483	0.686398
0	O	0.105856	0.641273	0.704172
0	H	0.0892246	0.638642	0.672085
0	O	0.091689	0.63128	0.637327
0	O	0.96861	0.701455	0.719339
0	O	0.0204529	0.712977	0.681739
0	C	0.984649	0.666929	0.638831
0	C	0.0871112	0.653724	0.670751
0	H	0.0848481	0.696151	0.69628
0	O	0.000923115	0.657981	0.698455
0	F	0.986848	0.670392	0.734025
0	H	0.00620559	0.710034	0.720246
0	C	0.986089	0.718116	0.64625
0	C	0.0289812	0.650611	0.715614
0	C	0.0997124	0.659134	0.704232
0	O	0.971616	0.718903	0.657847
0	C	0.0806059	0.660342	0.652407
0	O	0.985097	0.68898	0.681799
0	H	0.00951456	0.637449	0.629409
0	H	0.0302288	0.680681	0.637626
0	O	0.0717791	0.722223	0.649008
0	H	0.0369075	0.701412	0.644731
0	Fe	0.961214	0.693029	0.667999
0	C	0.98488	0.728873	0.628402
0	O	0.00997056	0.697432	0.713725
0	O	0.0350764	0.688262	0.648843
0	Fe	0.0102057	0.688402	0.666739
0	O	0.970361	0.678025	0.641765
0	C	0.0156453	0.639122	0.726915
0	H	0.0698216	0.685334	0.636714
0	Fe	0.984994	0.6803	0.708183
0	O	0.999636	0.705652	0.647172
0	C	0.0823059	0.685362	0.684743
0	C	0.0681915	0.713743	0.664982
0	C	0.0742321	0.692148	0.667516
0	H	0.026131	0.721842	0.671378
0	O	0.0821267	0.738163	0.716479
0	O	0.0989933	0.738903	0.679611
0	H	0.0710609	0.732999	0.724069
0	H	0.0911555	0.726814	0.714462
0	H	0.969794	0.624418	0.695926
0	O	0.0693087	0.647743	0.621575
0	C	0.0514356	0.649438	0.743678
0	H	0.0582042	0.620999	0.653589
0	C	0.791561	0.852691	0.69278
0	C	0.792222	0.746888	0.624439
0	H	0.936905	0.755246	0.672713
0	C	0.798561	0.83489	0.72167
0	O	0.94055	0.860744	0.658009
0	O	0.854998	0.748711	0.652736
0	O	0.887939	0.747165	0.629827
0	O	0.844368	0.782154	0.672589
0	O	0.86839	0.767878	0.689436
0	O	0.824154	0.846673	0.665997
0	O	0.913133	0.829509	0.715277
0	C	0.867461	0.845086	0.695801
0	C	0.878914	0.811199	0.700588
0	C	0.851241	0.83777	0.686178
0	C	0.862122	0.803649	0.691707
0	C	0.848508	0.8173	0.684789
0	C	0.882736	0.831746	0.700739
0	C	0.85788	0.78291	0.685104
0	C	0.902047	0.839694	0.705479
0	Fe	0.831653	0.760367	0.659179
0	Fe	0.942135	0.824465	0.709503
0	O	0.932907	0.811065	0.682847
0	C	0.915625	0.788061	0.651108
0	C	0.932745	0.799257	0.649298
0	C	0.896642	0.758851	0.641785
0	C	0.909926	0.774489	0.635683
0	C	0.940201	0.812019	0.665684
0	O	0.893412	0.757984	0.659968
0	O	0.832277	0.777951	0.633536
0	H	0.908767	0.787539	0.664976
0	H	0.889118	0.800463	0.705051
0	H	0.834592	0.813084	0.678801
0	C	0.916937	0.754222	0.727522
0	H	0.905702	0.765012	0.728774
0	O	0.938475	0.79815	0.724758
0	C	0.929056	0.754709	0.710371
0	O	0.912177	0.780165	0.696785
0	C	0.840326	0.851447	0.67375
0	C	0.926333	0.768838	0.694654
0	O	0.936876	0.770151	0.677977
0	O	0.907018	0.856412	0.699493
0	O	0.804712	0.772713	0.667662
0	O	0.946061	0.84886	0.695455
0	H	0.870463	0.860404	0.699738
0	Fe	0.805344	0.856687	0.644535
0	C	0.804721	0.848838	0.707788
0	C	0.939733	0.801456	0.63016
0	O	0.823913	0.84219	0.627529
0	H	0.806925	0.770942	0.68165
0	H	0.805738	0.786609	0.665023
0	O	0.933443	0.864901	0.733073
0	H	0.924626	0.797437	0.730717
0	H	0.814952	0.86073	0.712586
0	H	0.949132	0.798608	0.734363
0	O	0.951669	0.838663	0.734477
0	C	0.941306	0.851956	0.742851
0	H	0.948927	0.814101	0.628012
0	O	0.84838	0.867281	0.669952
0	C	0.793189	0.843954	0.739692
0	F	0.791709	0.832926	0.648835
0	H	0.88327	0.794137	0.744334
0	C	0.786334	0.820075	0.715501
0	H	0.936863	0.869311	0.622791
0	O	0.786554	0.861274	0.73786
0	C	0.109122	0.745077	0.665725
0	O	0.119002	0.826571	0.626008
0	O	0.953857	0.8234	0.661933
0	H	0.103303	0.823264	0.738521
0	H	0.00989736	0.795596	0.626303
0	O	0.101835	0.752144	0.650459
0	Fe	0.0743516	0.74904	0.6895
0	O	0.0484148	0.752764	0.626584
0	H	0.112236	0.78557	0.663573
0	H	0.0156143	0.800236	0.663057
0	C	0.00391415	0.814707	0.707113
0	Fe	0.0862716	0.857866	0.734965
0	C	0.098787	0.856513	0.692253
0	O	0.0307397	0.765627	0.684482
0	O	0.0653354	0.760481	0.664486
0	H	0.0713029	0.809437	0.654836
0	C	0.0174312	0.827951	0.71391
0	C	0.985508	0.822498	0.699709
0	O	0.0303989	0.771855	0.644888
0	F	0.980071	0.851762	0.652586
0	C	0.0354065	0.768924	0.701887
0	H	0.077537	0.8259	0.696754
0	O	0.0404175	0.854233	0.733622
0	C	0.0487459	0.83778	0.727756
0	C	0.985528	0.749364	0.627006
0	O	0.0816414	0.778652	0.629852
0	C	0.0411567	0.801537	0.720222
0	O	0.0640315	0.793113	0.689219
0	C	0.0374444	0.767882	0.628642
0	Fe	0.962895	0.849521	0.673709
0	H	0.0555367	0.798136	0.722878
0	H	0.0313473	0.816559	0.662726
0	O	0.0621994	0.80035	0.647579
0	Fe	0.0755235	0.750607	0.639816
0	C	0.0277078	0.787579	0.711585
0	O	0.103554	0.853323	0.710122
0	O	0.0276508	0.804836	0.669378
0	C	0.0997117	0.838951	0.68014
0	H	0.982267	0.757218	0.640151
0	O	0.0883552	0.77287	0.694802
0	O	0.0511496	0.760089	0.706822
0	C	0.00953224	0.794778	0.705133
0	Fe	0.0473955	0.782629	0.666317
0	C	0.0954066	0.804394	0.682806
0	O	0.0671408	0.837675	0.724286
0	O	0.986192	0.836913	0.688327
0	H	0.0526428	0.810321	0.643811
0	C	0.0899573	0.823265	0.687265
0	C	0.0819573	0.789294	0.690145
0	H	0.0138133	0.842937	0.712134
0	C	0.0359952	0.82156	0.720829
0	H	0.997414	0.784883	0.699669
0	O	0.969528	0.815182	0.705157
0	C	0.109193	0.800576	0.668339
0	C	0.114078	0.835714	0.664914
0	C	0.117322	0.816156	0.658225
0	O	0.0214502	0.85298	0.620975
0	O	0.996319	0.831149	0.619675
0	O	0.976616	0.788118	0.619668
0	H	0.00804233	0.861946	0.62494
0	H	0.0949988	0.776961	0.625443
0	O	0.839186	0.626761	0.747363
0	H	0.794953	0.724103	0.746001
0	C	0.798519	0.621092	0.775583
0	C	0.791046	0.726377	0.804078
0	H	0.794302	0.67888	0.800257
0	C	0.79441	0.62265	0.795612
0	O	0.88111	0.630545	0.868136
0	C	0.820984	0.627763	0.747927
0	C	0.911082	0.67645	0.74656
0	H	0.938351	0.636241	0.749838
0	H	0.936346	0.714714	0.750427
0	H	0.931035	0.630455	0.772141
0	C	0.930469	0.676267	0.75303
0	H	0.88042	0.673627	0.755892
0	O	0.900082	0.683882	0.849578
0	C	0.898563	0.696109	0.835073
0	O	0.887234	0.693474	0.821115
0	O	0.870983	0.665841	0.793894
0	C	0.886702	0.656357	0.791551
0	O	0.875615	0.654185	0.834981
0	Fe	0.862033	0.676345	0.82102
0	O	0.849057	0.699218	0.806521
0	O	0.853554	0.687857	0.84581
0	O	0.837162	0.662023	0.82271
0	C	0.83612	0.649835	0.808559
0	H	0.859149	0.707182	0.799793
0	H	0.844551	0.707568	0.817778
0	C	0.89591	0.671378	0.759424
0	C	0.901443	0.663521	0.77808
0	C	0.935188	0.673583	0.773269
0	C	0.920725	0.665185	0.785403
0	H	0.923968	0.661475	0.800233
0	C	0.81931	0.64822	0.796999
0	C	0.924192	0.714724	0.818293
0	C	0.910527	0.713151	0.833952
0	C	0.907558	0.729185	0.845444
0	C	0.939124	0.728485	0.818639
0	H	0.924751	0.703039	0.808642
0	H	0.895882	0.739214	0.803591
0	Fe	0.890512	0.657898	0.857956
0	H	0.895733	0.730337	0.854927
0	O	0.915266	0.644627	0.847026
0	H	0.833855	0.654644	0.769529
0	O	0.890961	0.641394	0.800824
0	C	0.822007	0.647047	0.777026
0	O	0.84968	0.637192	0.805669
0	H	0.803534	0.637348	0.821212
0	O	0.942218	0.634756	0.763984
0	Fe	0.874348	0.629176	0.821399
0	C	0.80413	0.637806	0.805812
0	H	0.946094	0.634175	0.819021
0	C	0.812331	0.633009	0.766312
0	C	0.915674	0.626683	0.840933
0	C	0.854671	0.682466	0.863832
0	H	0.949247	0.67569	0.846681
0	H	0.823529	0.742688	0.786445
0	O	0.950374	0.68954	0.843382
0	C	0.938518	0.741518	0.834689
0	C	0.949979	0.622631	0.828544
0	O	0.790991	0.722512	0.785805
0	H	0.786681	0.640755	0.85112
0	O	0.00414836	0.623703	0.774042
0	H	0.954562	0.696639	0.854215
0	C	0.953453	0.680166	0.782499
0	O	0.954049	0.682622	0.801413
0	Fe	0.112162	0.66635	0.746724
0	O	0.113218	0.637445	0.744529
0	O	0.966688	0.620145	0.791711
0	F	0.110428	0.69293	0.748319
0	C	0.957331	0.724047	0.808635
0	O	0.0820187	0.663525	0.752964
0	C	0.0173711	0.638373	0.747027
0	O	0.105939	0.642994	0.786618
0	O	0.960158	0.722012	0.790535
0	C	0.108539	0.669387	0.809358
0	C	0.111186	0.660637	0.789054
0	O	0.99248	0.692772	0.80384
0	H	0.0343814	0.661002	0.80361
0	C	0.0940522	0.662058	0.820909
0	C	0.995985	0.661118	0.836007
0	O	0.048326	0.694222	0.82469
0	F	0.97892	0.719721	0.756639
0	O	0.979349	0.664033	0.827527
0	O	0.0088799	0.69344	0.7646
0	O	0.00252063	0.729964	0.786726
0	Fe	0.0194492	0.692446	0.814036
0	H	0.0567582	0.698401	0.813095
0	O	0.970186	0.719237	0.81976
0	O	0.0261525	0.66917	0.795124
0	O	0.0129051	0.716537	0.833049
0	C	0.0204194	0.728141	0.790116
0	H	0.027705	0.639484	0.836758
0	C	0.107463	0.673959	0.850165
0	C	0.0164777	0.634045	0.846716
0	O	0.967627	0.685393	0.771415
0	H	0.0818854	0.653042	0.813132
0	H	0.0507511	0.704086	0.83473
0	C	0.999634	0.715314	0.84592
0	C	0.0854104	0.64602	0.851056
0	C	0.0929573	0.66369	0.840801
0	H	0.0135645	0.661693	0.794123
0	H	0.969022	0.642416	0.859654
0	O	0.0281975	0.712439	0.793836
0	C	0.0360733	0.641782	0.755191
0	C	0.983139	0.635939	0.859141
0	O	0.0761677	0.631163	0.75904
0	O	0.0902	0.630979	0.841606
0	H	0.00420565	0.679623	0.764111
0	Fe	0.985516	0.707379	0.779172
0	C	0.998097	0.643218	0.847283
0	C	0.000693743	0.63089	0.757857
0	O	0.989534	0.699648	0.846789
0	H	0.0390034	0.637328	0.771108
0	Fe	0.973051	0.691123	0.823194
0	C	0.0709747	0.648301	0.75236
0	O	0.984348	0.629654	0.750263
0	O	0.0103304	0.673208	0.834278
0	C	0.995773	0.732172	0.860026
0	H	0.108213	0.675407	0.866574
0	O	0.0754627	0.646419	0.866711
0	H	0.0562387	0.727823	0.772955
0	Fe	0.104021	0.621402	0.76625
0	O	0.11052	0.740915	0.860838
0	O	0.0916729	0.738969	0.759094
0	H	0.104031	0.743202	0.74992
0	C	0.0517644	0.74241	0.778241
0	O	0.933932	0.834461	0.864669
0	C	0.792279	0.756691	0.822094
0	C	0.920483	0.745162	0.843752
0	C	0.800425	0.744579	0.80869
0	H	0.864699	0.746907	0.843725
0	H	0.943924	0.833984	0.854359
0	O	0.792058	0.802217	0.84681
0	H	0.860791	0.790634	0.749975
0	O	0.796156	0.835744	0.756027
0	H	0.850387	0.752564	0.828938
0	C	0.912673	0.747571	0.76263
0	O	0.798501	0.861139	0.812527
0	C	0.865788	0.867553	0.814775
0	C	0.808058	0.867284	0.851385
0	O	0.864313	0.749636	0.830091
0	C	0.793321	0.7842	0.845224
0	O	0.873812	0.78345	0.74904
0	H	0.926907	0.819406	0.751475
0	H	0.951588	0.749951	0.838869
0	O	0.894884	0.751246	0.764978
0	F	0.804443	0.823519	0.793998
0	C	0.816145	0.751748	0.797501
0	O	0.926025	0.753159	0.775056
0	O	0.874566	0.803526	0.787597
0	O	0.885131	0.806646	0.818882
0	C	0.878659	0.814576	0.802198
0	Fe	0.875872	0.777466	0.82588
0	O	0.893198	0.754106	0.804348
0	O	0.854044	0.784514	0.807908
0	Fe	0.883828	0.776345	0.776815
0	O	0.8932	0.76869	0.803136
0	Fe	0.922449	0.76424	0.804317
0	O	0.896233	0.769982	0.847116
0	O	0.919911	0.776948	0.830304
0	C	0.913413	0.765393	0.84266
0	O	0.920875	0.791547	0.798211
0	O	0.855944	0.76335	0.784318
0	O	0.909574	0.791186	0.768909
0	C	0.845471	0.771727	0.797361
0	C	0.91811	0.799101	0.782413
0	F	0.860815	0.78649	0.846006
0	C	0.824851	0.76906	0.802258
0	C	0.817124	0.781384	0.816517
0	H	0.823748	0.795148	0.821783
0	C	0.873019	0.848053	0.816368
0	C	0.873037	0.835625	0.800237
0	C	0.864891	0.842857	0.782908
0	H	0.862826	0.832441	0.771196
0	H	0.87551	0.842096	0.83094
0	C	0.919723	0.831609	0.797606
0	C	0.928525	0.827668	0.764582
0	C	0.921599	0.852382	0.796418
0	C	0.922432	0.819297	0.781586
0	H	0.915754	0.824301	0.810971
0	O	0.919908	0.853679	0.830345
0	O	0.825144	0.851036	0.7808
0	C	0.934377	0.847234	0.762818
0	C	0.929283	0.86028	0.778596
0	C	0.836145	0.864165	0.775864
0	C	0.856546	0.861508	0.781904
0	C	0.800479	0.774275	0.827018
0	Fe	0.915159	0.857767	0.8602
0	O	0.894197	0.838634	0.858723
0	C	0.917301	0.863122	0.814398
0	H	0.807217	0.853069	0.844999
0	O	0.790482	0.772717	0.860209
0	O	0.952415	0.767799	0.80476
0	Fe	0.796316	0.847405	0.783793
0	C	0.879267	0.837227	0.869391
0	C	0.0559972	0.861467	0.79943
0	O	0.0594729	0.784574	0.86602
0	H	0.0582039	0.847405	0.793099
0	O	0.0677991	0.826368	0.866475
0	O	0.993897	0.83141	0.854646
0	H	0.986453	0.812073	0.806464
0	Fe	0.0112691	0.817527	0.834033
0	O	0.0480133	0.78882	0.828245
0	O	0.990962	0.824123	0.813176
0	H	0.956948	0.778064	0.813981
0	H	0.0164909	0.763701	0.805872
0	C	0.0599742	0.774666	0.785804
0	O	0.998561	0.792322	0.84101
0	H	0.990801	0.844212	0.848715
0	C	0.0423399	0.77707	0.796461
0	O	0.0560827	0.830833	0.829037
0	O	0.0254539	0.842708	0.830019
0	C	0.99282	0.767922	0.864615
0	H	0.957272	0.77231	0.792028
0	C	0.99927	0.75124	0.85382
0	C	0.0391528	0.790999	0.812489
0	H	0.091562	0.826279	0.756332
0	C	0.0436218	0.844047	0.827091
0	H	0.103976	0.857335	0.802244
0	H	0.0872051	0.789966	0.829981
0	O	0.0952243	0.863685	0.813007
0	C	0.049719	0.861768	0.818842
0	H	0.00656957	0.753318	0.840226
0	Fe	0.0568455	0.807618	0.847652
0	C	0.0653942	0.75675	0.777621
0	H	0.0699793	0.787081	0.787438
0	O	0.100524	0.833385	0.747978
0	O	0.0267673	0.80453	0.811437
0	O	0.0702691	0.860118	0.761465
0	C	0.0330302	0.745046	0.786573
0	C	0.995842	0.78795	0.858436
0	C	0.028707	0.762585	0.795763
0	H	0.0750944	0.753267	0.858853
0	C	0.0844721	0.756074	0.768107
0	O	0.0859164	0.801979	0.837862
0	H	0.0922229	0.799192	0.850793
0	O	0.0951196	0.770925	0.767631
0	H	0.0934495	0.854027	0.82316
0	O	0.0314126	0.811537	0.854234
0	H	0.99544	0.831988	0.80201
0	H	0.0917602	0.851153	0.86899
0	H	0.0181831	0.847319	0.868307
0	O	0.84964	0.663021	0.962508
0	O	0.869035	0.66481	0.936781
0	O	0.896168	0.730376	0.927155
0	C	0.86629	0.706185	0.938274
0	C	0.851455	0.733871	0.954292
0	C	0.852072	0.693092	0.94638
0	C	0.838107	0.721618	0.962844
0	C	0.837294	0.70155	0.957753
0	C	0.865562	0.727136	0.941185
0	C	0.827537	0.727998	0.979952
0	C	0.881893	0.740039	0.933447
0	C	0.856641	0.671898	0.948061
0	C	0.929609	0.66787	0.967528
0	C	0.917136	0.651671	0.96181
0	C	0.932204	0.683188	0.954074
0	O	0.90483	0.653795	0.947963
0	Fe	0.919344	0.73855	0.912071
0	O	0.91276	0.717033	0.891259
0	H	0.877406	0.700878	0.928965
0	H	0.8263	0.692951	0.965182
0	H	0.924295	0.683531	0.941057
0	H	0.898043	0.718081	0.888488
0	C	0.830263	0.718884	0.89655
0	O	0.935576	0.65963	0.912757
0	F	0.801239	0.666284	0.95251
0	C	0.836324	0.736107	0.906418
0	C	0.933479	0.671504	0.987527
0	F	0.904237	0.663651	0.879989
0	C	0.844914	0.708289	0.886784
0	C	0.811277	0.711532	0.897655
0	H	0.918076	0.721816	0.879148
0	C	0.806651	0.693434	0.889256
0	F	0.823072	0.638146	0.976632
0	C	0.821881	0.683357	0.879352
0	O	0.945448	0.685811	0.893342
0	O	0.933431	0.717054	0.929063
0	O	0.891158	0.644989	0.909713
0	Fe	0.882728	0.637372	0.937039
0	H	0.87807	0.648733	0.905149
0	Fe	0.848501	0.634328	0.97049
0	O	0.916965	0.636636	0.972906
0	O	0.875378	0.630164	0.963611
0	C	0.94205	0.700005	0.959482
0	C	0.941028	0.717705	0.946165
0	C	0.949455	0.668784	0.903642
0	O	0.947043	0.733011	0.953944
0	H	0.897086	0.658065	0.913188
0	H	0.800698	0.717916	0.907409
0	H	0.929681	0.68779	0.893472
0	O	0.793606	0.675136	0.914373
0	C	0.84075	0.690995	0.8771
0	H	0.858881	0.71493	0.884194
0	C	0.945902	0.702559	0.978832
0	O	0.83757	0.623665	0.944799
0	C	0.792028	0.620048	0.908622
0	H	0.893968	0.625679	0.873722
0	H	0.950835	0.716879	0.982356
0	O	0.825255	0.743296	0.919788
0	O	0.859699	0.621234	0.922772
0	H	0.8731	0.632883	0.879935
0	C	0.790442	0.682462	0.897776
0	O	0.952311	0.620307	0.88313
0	O	0.824465	0.716637	0.994367
0	C	0.942538	0.689005	0.993865
0	H	0.818734	0.669132	0.875084
0	O	0.866361	0.669315	0.870277
0	O	0.0192311	0.68755	0.876487
0	H	0.961843	0.639863	0.928591
0	H	0.966778	0.64547	0.964967
0	O	0.00857199	0.637229	0.951088
0	O	0.0356999	0.678866	0.904354
0	C	0.995069	0.629819	0.941287
0	O	0.97197	0.641797	0.977658
0	C	0.0919382	0.66849	0.965546
0	C	0.00822355	0.648123	0.912744
0	C	0.9732	0.645188	0.918559
0	H	0.0357487	0.661796	0.963223
0	O	0.0829523	0.677485	0.952377
0	C	0.0841573	0.735921	0.883535
0	Fe	0.0921389	0.704717	0.947207
0	H	0.0884778	0.689277	0.914834
0	C	0.991993	0.638472	0.92199
0	H	0.0852441	0.647082	0.932305
0	C	0.0623224	0.732893	0.911479
0	H	0.108427	0.681329	0.922743
0	C	0.00458183	0.664643	0.900224
0	O	0.101324	0.693997	0.920261
0	C	0.098881	0.643492	0.93966
0	O	0.0848456	0.7143	0.972684
0	O	0.0968242	0.675677	0.982053
0	H	0.0897225	0.722493	0.910911
0	C	0.102048	0.650541	0.958939
0	C	0.105053	0.733177	0.876746
0	O	0.0997169	0.636961	0.898145
0	C	0.0592432	0.724605	0.932083
0	H	0.982086	0.67903	0.884362
0	Fe	0.0217483	0.631576	0.976976
0	O	0.043246	0.649936	0.967832
0	C	0.11057	0.627674	0.909533
0	H	0.0497574	0.644067	0.956253
0	O	0.0655216	0.707639	0.935496
0	H	0.050418	0.647093	0.894654
0	O	0.0536834	0.735235	0.946477
0	O	0.0605248	0.644808	0.904924
0	H	0.068371	0.656721	0.903811
0	H	0.0230542	0.644044	0.916827
0	C	0.98521	0.668857	0.895367
0	Fe	0.0742224	0.625108	0.889078
0	H	0.00220361	0.664581	0.977839
0	C	0.0209693	0.676238	0.892812
0	O	0.101627	0.731548	0.94081
0	C	0.969885	0.66081	0.905554
0	C	0.0792122	0.728316	0.901885
0	O	0.046601	0.714295	0.987871
0	Fe	0.0653198	0.735052	0.974385
0	C	0.984254	0.730087	0.877804
0	H	0.979678	0.715294	0.883327
0	O	0.0055268	0.655269	0.988357
0	H	0.961798	0.644323	0.987175
0	C	0.114384	0.636503	0.92835
0	C	0.986578	0.619705	0.871064
0	H	0.0338665	0.691715	0.872817
0	O	0.116958	0.72574	0.888393
0	O	0.943873	0.745321	0.8971
0	O	0.853429	0.745734	0.901624
0	H	0.855643	0.745575	0.886024
0	O	0.823459	0.746372	0.980682
0	C	0.794078	0.849486	0.878537
0	Fe	0.790922	0.776593	0.88911
0	H	0.852896	0.749057	0.958799
0	O	0.881931	0.758588	0.933223
0	O	0.825195	0.787078	0.983667
0	Fe	0.90494	0.778058	0.937201
0	O	0.885292	0.800567	0.942492
0	O	0.903604	0.768618	0.962463
0	C	0.91668	0.77061	0.974066
0	O	0.900262	0.758709	0.895766
0	O	0.906882	0.787943	0.908862
0	C	0.896883	0.777053	0.897986
0	O	0.924834	0.800287	0.945502
0	O	0.924497	0.758255	0.931553
0	H	0.871843	0.79592	0.939794
0	H	0.884825	0.802405	0.956936
0	O	0.818394	0.785868	0.887726
0	C	0.826696	0.79877	0.898349
0	O	0.817336	0.808909	0.911517
0	O	0.797681	0.84394	0.895676
0	H	0.929333	0.806308	0.98311
0	C	0.861271	0.786699	0.897478
0	C	0.847412	0.80168	0.894348
0	H	0.859527	0.775823	0.908718
0	H	0.880293	0.778901	0.987199
0	O	0.934578	0.769689	0.96955
0	C	0.880149	0.786436	0.888652
0	C	0.852018	0.816743	0.881106
0	F	0.798569	0.751267	0.888815
0	C	0.941622	0.814941	0.981211
0	O	0.799583	0.852543	0.982829
0	C	0.943414	0.801908	0.947089
0	O	0.795221	0.776348	0.919091
0	O	0.912209	0.860444	0.890967
0	C	0.884839	0.803225	0.87769
0	O	0.870966	0.852817	0.876279
0	C	0.871296	0.818113	0.874913
0	H	0.841048	0.827958	0.879059
0	Fe	0.950215	0.760645	0.944528
0	H	0.839449	0.787198	0.979544
0	O	0.794016	0.835815	0.937803
0	H	0.822869	0.799329	0.99018
0	H	0.813574	0.85109	0.986243
0	H	0.807228	0.836953	0.940318
0	H	0.900224	0.805036	0.874445
0	C	0.950711	0.815946	0.96227
0	Fe	0.787852	0.820078	0.911957
0	C	0.802404	0.868941	0.870575
0	H	0.939057	0.864983	0.916532
0	H	0.794863	0.839441	0.986586
0	H	0.94138	0.838409	0.876486
0	H	0.790394	0.826189	0.947387
0	C	0.976438	0.747061	0.887145
0	O	0.954132	0.789995	0.938148
0	C	0.0507184	0.747574	0.903048
0	C	0.961479	0.74639	0.902489
0	C	0.0710538	0.74817	0.87374
0	C	0.0985453	0.749012	0.948046
0	H	0.0235774	0.845579	0.891807
0	O	0.0319676	0.782066	0.882897
0	F	0.994924	0.845975	0.91625
0	C	0.0733838	0.844396	0.893432
0	C	0.0556557	0.756238	0.884887
0	O	0.0859207	0.752266	0.961126
0	C	0.084639	0.857054	0.881317
0	C	0.0481665	0.775267	0.87756
0	F	0.014953	0.808912	0.907097
0	H	0.975304	0.777796	0.888488
0	H	0.0569096	0.8419	0.919343
0	C	0.980943	0.76543	0.881271
0	C	0.0647454	0.827796	0.884189
0	O	0.0152977	0.840271	0.880912
0	C	0.974084	0.840475	0.975655
0	H	0.091575	0.788499	0.944722
0	O	0.000983272	0.85418	0.954681
0	Fe	0.0239879	0.810676	0.881877
0	O	0.0511282	0.818733	0.892763
0	O	0.966269	0.751741	0.919195
0	C	0.0646657	0.851893	0.909815
0	C	0.967707	0.827365	0.960883
0	H	0.0381632	0.753347	0.911541
0	F	0.0462422	0.754855	0.976731
0	C	0.989439	0.857025	0.969231
0	H	0.97406	0.828723	0.946621
0	F	0.973909	0.761839	0.95893
0	C	0.105513	0.783682	0.939672
0	O	0.113757	0.863176	0.99148
0	H	0.0932501	0.840056	0.933633
0	O	0.0972225	0.825914	0.940369
0	C	0.11134	0.764246	0.941583
0	O	0.997447	0.800573	0.872366
0	H	0.061418	0.865901	0.98022
0	C	0.963396	0.839461	0.993874
0	C	0.112507	0.818311	0.929456
0	C	0.1181	0.79694	0.930599
0	O	0.0568391	0.863144	0.993723
0	O	0.028228	0.867951	0.922286
0	C	0.788046	0.726758	0.0788704
0	H	0.810156	0.620952	0.10291
0	O	0.78812	0.735452	0.00103591
0	O	0.857081	0.645694	0.998516
0	Fe	0.807994	0.720208	0.0180907
0	O	0.817828	0.726967	0.062104
0	C	0.799753	0.725569	0.0608534
0	O	0.920527	0.738575	0.0507079
0	O	0.829073	0.703879	0.0344388
0	O	0.852872	0.724112	0.0427154
0	O	0.917178	0.700799	0.0700171
0	O	0.931129	0.685039	0.044845
0	C	0.893409	0.666853	0.0341399
0	C	0.879267	0.692877	0.051752
0	C	0.87517	0.662239	0.0244573
0	C	0.86135	0.690046	0.0415827
0	C	0.858827	0.673879	0.0285081
0	C	0.895677	0.681777	0.0475238
0	C	0.847065	0.707304	0.0391287
0	C	0.915703	0.68905	0.0545216
0	C	0.873199	0.647269	0.00810028
0	Fe	0.935784	0.726706	0.0735961
0	O	0.913814	0.73635	0.0925917
0	H	0.905887	0.658298	0.02851
0	H	0.880925	0.705317	0.0612002
0	H	0.847096	0.672978	0.0189453
0	H	0.92957	0.65983	0.997819
0	O	0.791535	0.72477	0.043782
0	O	0.792212	0.695996	0.0132803
0	O	0.888041	0.637932	0.00313289
0	O	0.944077	0.683764	0.0304887
0	O	0.796581	0.625456	0.103268
0	C	0.796648	0.736641	0.0943708
0	H	0.913484	0.725994	0.102194
0	C	0.948735	0.694023	0.01415
0	H	0.812313	0.73849	0.0947855
0	O	0.821789	0.743479	0.023542
0	H	0.798654	0.639353	0.106899
0	H	0.901444	0.735429	0.0849865
0	H	0.796845	0.687013	0.00309962
0	H	0.791437	0.689321	0.0258939
0	H	0.925088	0.692478	0.115888
0	H	0.973901	0.631356	0.116552
0	O	0.0393559	0.681738	0.116327
0	H	0.979908	0.622783	0.0505643
0	H	0.113448	0.6627	0.0462266
0	H	0.0954771	0.680142	0.0240486
0	C	0.969445	0.624513	0.0888053
0	Fe	0.0964213	0.701914	0.995724
0	O	0.0684929	0.628727	0.113601
0	O	0.11653	0.679057	0.111006
0	O	0.954908	0.715448	0.0560491
0	C	0.0279911	0.713228	0.111016
0	O	0.95542	0.718676	0.0971478
0	C	0.111899	0.647633	0.0496875
0	C	0.0381375	0.688575	0.0105966
0	C	0.0288519	0.655092	0.0211553
0	F	0.95674	0.663203	0.0642053
0	O	0.100239	0.726853	0.0112814
0	Fe	0.0875596	0.688552	0.107791
0	C	0.973224	0.710665	0.0945706
0	O	0.0841959	0.670422	0.082848
0	C	0.0943377	0.65502	0.0822578
0	C	0.0979254	0.642767	0.0648145
0	H	0.00538388	0.654149	0.0426046
0	H	0.0221005	0.712144	0.0229533
0	C	0.0105759	0.684939	0.032411
0	C	0.00982315	0.706894	0.103075
0	C	0.0139231	0.664076	0.033318
0	C	0.992439	0.717342	0.106194
0	H	0.0108229	0.695346	0.0919737
0	C	0.0518777	0.70034	0.999104
0	O	0.0971888	0.711213	0.0914163
0	O	0.978578	0.683002	0.0423537
0	O	0.992296	0.712697	0.0425633
0	O	0.0696897	0.696543	0.00383875
0	O	0.0741831	0.742292	0.00235437
0	O	0.0391536	0.628645	0.00230425
0	C	0.993223	0.693721	0.0401129
0	O	0.102591	0.647819	0.0971933
0	C	0.0440473	0.698624	0.110572
0	O	0.974997	0.697031	0.0818689
0	C	0.029327	0.633794	0.0164977
0	O	0.0611497	0.70359	0.10541
0	Fe	0.955947	0.689589	0.0598651
0	H	0.0520284	0.661582	0.00111981
0	C	0.023566	0.696894	0.0219122
0	C	0.0408964	0.667705	0.0105245
0	O	0.958582	0.7099	0.015213
0	Fe	0.969601	0.729211	0.0371103
0	H	0.0879882	0.722206	0.093529
0	O	0.106524	0.6883	0.0206107
0	H	0.109834	0.715102	0.0979691
0	C	0.0913493	0.742532	0.00856403
0	O	0.985042	0.63336	0.0851455
0	O	0.963565	0.622379	0.107717
0	H	0.105896	0.698577	0.0306478
0	C	0.0953759	0.622646	0.0697374
0	H	0.977303	0.744208	0.00353951
0	O	0.0183733	0.620555	0.0233129
0	C	0.910647	0.772981	0.994543
0	O	0.809307	0.767451	0.116904
0	O	0.946406	0.747759	0.0327046
0	C	0.928649	0.749377	0.037598
0	H	0.952106	0.820957	0.112386
0	C	0.947437	0.825332	0.997791
0	C	0.897658	0.865142	0.0287253
0	C	0.794249	0.81392	0.0375545
0	O	0.794497	0.842217	0.114085
0	Fe	0.834596	0.746215	0.047849
0	H	0.909385	0.763653	0.110153
0	C	0.895632	0.770426	0.11441
0	F	0.91281	0.849904	0.114963
0	H	0.891236	0.760462	0.0453367
0	C	0.870931	0.794178	0.109408
0	F	0.847291	0.750624	0.0704607
0	Fe	0.82248	0.764568	0.00389898
0	O	0.821708	0.784878	0.0254613
0	C	0.812075	0.781989	0.0410576
0	O	0.81407	0.766889	0.0512717
0	O	0.856399	0.764608	0.0367962
0	C	0.890751	0.773891	0.998878
0	C	0.863034	0.766876	0.0195801
0	C	0.88363	0.768533	0.0167648
0	C	0.924039	0.768575	0.00890865
0	C	0.896617	0.762765	0.0311236
0	C	0.917157	0.762117	0.0263697
0	O	0.852118	0.764969	0.00458909
0	Fe	0.805915	0.794728	0.105696
0	O	0.821723	0.783054	0.0825835
0	H	0.828523	0.793218	0.0756768
0	H	0.832107	0.776502	0.0894012
0	O	0.943174	0.842754	0.0878315
0	Fe	0.912949	0.845218	0.0883272
0	O	0.883801	0.846197	0.0860095
0	C	0.872138	0.841757	0.0732698
0	O	0.87649	0.832134	0.0581446
0	O	0.895495	0.846291	0.0265831
0	O	0.915827	0.841392	0.0612793
0	Fe	0.900405	0.822526	0.0455252
0	O	0.909381	0.815756	0.0959478
0	O	0.882069	0.805727	0.0294871
0	O	0.899112	0.799531	0.0695369
0	C	0.900568	0.800972	0.0887507
0	O	0.926976	0.813016	0.0281914
0	O	0.93299	0.843484	0.0225231
0	C	0.935487	0.826411	0.0177765
0	H	0.873184	0.81384	0.0219187
0	H	0.874003	0.799193	0.0396822
0	C	0.889452	0.78733	0.103767
0	H	0.864734	0.806589	0.102055
0	C	0.835928	0.840457	0.0792393
0	H	0.835953	0.825435	0.0775082
0	C	0.821811	0.849924	0.0912846
0	Fe	0.935797	0.856923	0.0481458
0	C	0.852171	0.850876	0.0734218
0	H	0.858908	0.858139	0.0279096
0	O	0.803714	0.820937	0.0918196
0	C	0.805272	0.837328	0.0992833
0	H	0.939792	0.767546	0.00486706
0	H	0.803792	0.81823	0.0264496
0	C	0.795263	0.794703	0.0453402
0	O	0.792968	0.767202	0.00212681
0	O	0.949796	0.752869	0.0768959
0	O	0.831837	0.802874	0.116934
0	O	0.790891	0.851919	0.0234915
0	C	0.952114	0.831826	0.0753391
0	C	0.824894	0.868686	0.0973274
0	O	0.981509	0.864647	0.108654
0	C	0.0239517	0.867679	0.0746187
0	O	0.0978671	0.832027	0.0595277
0	Fe	0.0750619	0.838049	0.0408324
0	O	0.977616	0.750518	0.0583859
0	H	0.975015	0.850813	0.113325
0	H	0.98407	0.758243	0.0197042
0	C	0.956164	0.808744	0.102407
0	H	0.0535578	0.822924	0.0687554
0	O	0.984976	0.744828	0.016332
0	O	0.0885758	0.858316	0.0245922
0	C	0.114562	0.840093	0.0620235
0	C	0.966757	0.794147	0.110795
0	H	0.0504189	0.827931	0.0167239
0	C	0.101388	0.815067	0.0153367
0	H	0.0826901	0.780669	0.0193456
0	C	0.996124	0.859775	0.0955848
0	C	0.0964017	0.779125	0.0121923
0	O	0.085341	0.816872	0.0239431
0	O	0.0511279	0.841159	0.0230407
0	O	0.113627	0.828382	0.0150524
0	C	0.97156	0.779042	0.0783872
0	H	0.0244478	0.852342	0.0707537
0	H	0.0397843	0.840281	0.0320986
0	H	0.986451	0.768926	0.104511
0	O	0.997098	0.842036	0.0900695
0	C	0.106147	0.795972	0.00681935
0	C	0.975617	0.779327	0.0984635
0	O	0.0584471	0.817521	0.0561862
0	Fe	0.116145	0.857547	0.0207972
0	C	0.103345	0.760208	0.00629771
0	H	0.0231893	0.808687	0.0964157
0	C	0.966623	0.759227	0.0713697
0	O	0.0642984	0.859609	0.0587329
0	O	0.955729	0.837777	0.0584752
0	H	0.0673688	0.807234	0.060832
0	O	0.0313933	0.81157	0.108755
0	H	0.0417935	0.802881	0.110342
0	C	0.956999	0.811906	0.0822405
0	C	0.964275	0.79635	0.0701026
0	H	0.966512	0.849729	0.00552314
0	H	0.963985	0.797671	0.0544091
0	O	0.833271	0.919064	0.129939
0	O	0.847058	0.903614	0.155234
0	C	0.81363	0.906896	0.154897
0	C	0.832255	0.909465	0.145583
0	O	0.883564	0.970439	0.222049
0	C	0.889579	0.934919	0.207728
0	C	0.877513	0.921318	0.238397
0	C	0.886026	0.936919	0.228318
0	C	0.872073	0.904048	0.228937
0	C	0.858006	0.890442	0.237172
0	C	0.883651	0.95735	0.235171
0	O	0.886606	0.933842	0.168304
0	C	0.886958	0.917526	0.177263
0	C	0.877792	0.902421	0.209352
0	C	0.88545	0.917775	0.19852
0	O	0.88666	0.901821	0.167729
0	O	0.87842	0.962571	0.144086
0	C	0.831106	0.984723	0.147482
0	C	0.850214	0.980546	0.15234
0	C	0.860418	0.965025	0.141654
0	Fe	0.871769	0.895568	0.143269
0	Fe	0.895632	0.939074	0.141509
0	O	0.875353	0.9215	0.131495
0	F	0.913597	0.956105	0.152253
0	H	0.824615	0.979453	0.133374
0	H	0.871252	0.980555	0.17487
0	H	0.898039	0.946448	0.201484
0	H	0.873009	0.889657	0.202045
0	O	0.943409	0.915754	0.204257
0	H	0.940676	0.910314	0.217305
0	C	0.800836	0.96022	0.227593
0	C	0.796724	0.979749	0.225705
0	C	0.85753	0.986871	0.170138
0	O	0.91594	0.915385	0.141484
0	O	0.851587	0.954988	0.129665
0	H	0.92727	0.9191	0.14885
0	C	0.796278	0.893111	0.182118
0	C	0.812815	0.893398	0.170215
0	C	0.79813	0.887117	0.201815
0	C	0.798111	0.919641	0.151319
0	O	0.845838	0.882232	0.226484
0	H	0.798046	0.930612	0.139034
0	H	0.825238	0.88366	0.172853
0	C	0.941919	0.982336	0.130951
0	O	0.790562	0.978425	0.149637
0	O	0.895948	0.884312	0.12815
0	C	0.811658	0.952997	0.243073
0	H	0.920549	0.915814	0.128201
0	H	0.933982	0.926937	0.203948
0	C	0.948757	0.964096	0.137616
0	C	0.944375	0.992753	0.164712
0	H	0.924899	0.980793	0.206512
0	O	0.914137	0.989502	0.202428
0	C	0.950158	0.9478	0.124502
0	O	0.797822	0.923328	0.243226
0	O	0.916117	0.987683	0.24274
0	H	0.794828	0.949823	0.217085
0	H	0.907608	0.982653	0.191805
0	O	0.810422	0.874416	0.2071
0	C	0.80608	0.99318	0.23818
0	O	0.789439	0.897625	0.214432
0	C	0.79825	0.994301	0.15612
0	O	0.85368	0.885628	0.120778
0	C	0.953468	0.974864	0.169758
0	C	0.95482	0.960168	0.155924
0	O	0.960893	0.932852	0.129533
0	H	0.96119	0.946501	0.159369
0	C	0.042168	0.933278	0.214275
0	O	0.00786546	0.935149	0.175724
0	C	0.0514582	0.902386	0.12935
0	C	0.0317647	0.898189	0.136072
0	C	0.0917199	0.911341	0.227063
0	O	0.980057	0.918522	0.181797
0	O	0.00829928	0.977416	0.216617
0	O	0.0579317	0.919811	0.131282
0	O	0.982912	0.968719	0.184733
0	H	0.0262889	0.926124	0.146902
0	O	0.109955	0.946895	0.141539
0	O	0.996239	0.939701	0.215854
0	O	0.0219634	0.974496	0.176791
0	C	0.0720528	0.917103	0.228735
0	H	0.0196115	0.98792	0.180658
0	O	0.108447	0.879872	0.163722
0	C	0.00387061	0.905921	0.157745
0	Fe	0.085645	0.932462	0.13659
0	C	0.996398	0.920533	0.172621
0	O	0.0310935	0.922421	0.224279
0	C	0.0953519	0.926859	0.176165
0	O	0.107398	0.880822	0.234485
0	H	0.0571825	0.982763	0.232394
0	C	0.0204469	0.911876	0.146235
0	C	0.0919273	0.930373	0.196697
0	C	0.0740849	0.939451	0.201575
0	C	0.0249401	0.878914	0.134632
0	Fe	0.970823	0.929082	0.210193
0	H	0.98539	0.881216	0.164537
0	O	0.08099	0.928299	0.164502
0	C	0.101206	0.917149	0.210092
0	C	0.0196564	0.977253	0.231838
0	O	0.958056	0.956419	0.200577
0	C	0.99109	0.894935	0.231431
0	C	0.0634348	0.930329	0.215621
0	O	0.0728991	0.959625	0.137247
0	H	0.0126323	0.97281	0.164843
0	O	0.0359965	0.948741	0.20584
0	O	0.962713	0.937006	0.240912
0	Fe	0.00844769	0.9565	0.196778
0	H	0.0669729	0.948233	0.190808
0	O	0.981242	0.901071	0.217243
0	C	0.964826	0.968185	0.187453
0	O	0.0983536	0.90784	0.135643
0	C	0.997426	0.885803	0.155232
0	O	0.112447	0.920559	0.171505
0	C	0.998821	0.874131	0.231889
0	H	0.0779921	0.964066	0.150063
0	C	0.0974353	0.89522	0.240627
0	Fe	0.0100868	0.934278	0.240616
0	O	0.024313	0.961918	0.241935
0	H	0.114315	0.909271	0.206179
0	O	0.0625526	0.888268	0.123876
0	C	0.0405955	0.992939	0.123383
0	C	0.00801698	0.871955	0.143425
0	O	0.998372	0.907255	0.24354
0	F	0.117179	0.970505	0.20907
0	H	0.0587726	0.956731	0.140247
0	H	0.0645134	0.911397	0.240963
0	C	0.819447	0.995	0.160191
0	C	0.938428	0.996807	0.145158
0	O	0.875555	0.0051139	0.20194
0	C	0.79089	0.0786682	0.14192
0	C	0.847233	0.999821	0.182553
0	Fe	0.895309	0.997137	0.223179
0	H	0.940511	0.00380445	0.176609
0	O	0.90849	0.0664009	0.150267
0	Fe	0.894054	0.0395566	0.152143
0	O	0.897581	0.0402024	0.181911
0	C	0.806136	0.0873576	0.17258
0	C	0.824595	0.0903066	0.182376
0	C	0.840321	0.0768274	0.177685
0	O	0.869504	0.0560818	0.155364
0	O	0.848743	0.0348878	0.143495
0	C	0.852456	0.0503807	0.15332
0	C	0.818572	0.0599212	0.155291
0	C	0.836906	0.0621122	0.162419
0	O	0.879207	0.014332	0.156884
0	O	0.918944	0.0245909	0.15281
0	C	0.928181	0.0153772	0.139218
0	H	0.854653	0.079296	0.184355
0	H	0.816131	0.0484962	0.144779
0	H	0.8969	0.0976157	0.167848
0	H	0.883736	0.0390116	0.18688
0	H	0.903404	0.0279494	0.186234
0	O	0.848615	0.0156449	0.215752
0	C	0.857162	0.00746654	0.201277
0	C	0.827235	0.00278031	0.177214
0	Fe	0.86043	0.0277599	0.240938
0	O	0.840625	0.0522027	0.238085
0	O	0.906935	0.0240316	0.22269
0	O	0.880893	0.0439561	0.225208
0	C	0.898842	0.0408623	0.222536
0	H	0.819395	0.0119988	0.186441
0	C	0.925572	0.0570588	0.203679
0	C	0.921965	0.0911362	0.225919
0	C	0.911312	0.058037	0.217989
0	C	0.909656	0.0747561	0.229129
0	C	0.937837	0.0725106	0.200575
0	H	0.928123	0.0438435	0.195855
0	H	0.888112	0.00314753	0.155849
0	C	0.901642	0.106782	0.15589
0	C	0.910474	0.076814	0.135085
0	C	0.90898	0.0987821	0.137919
0	C	0.829102	0.108768	0.193689
0	O	0.845949	0.109732	0.200119
0	C	0.804603	0.0741987	0.157966
0	H	0.795789	0.0979648	0.173677
0	H	0.804274	0.00884659	0.238104
0	C	0.936377	0.0901922	0.210682
0	O	0.888325	0.0354124	0.124657
0	F	0.876515	0.109883	0.226713
0	C	0.918626	0.10955	0.236882
0	O	0.877063	0.00470981	0.243683
0	H	0.946183	0.102006	0.207689
0	H	0.898117	0.0761251	0.238943
0	O	0.795369	0.0738494	0.124802
0	C	0.910927	0.112637	0.121814
0	O	0.788437	0.00890607	0.159328
0	O	0.868543	0.000369581	0.123046
0	O	0.926726	0.0214399	0.121337
0	H	0.829593	0.0451727	0.231887
0	H	0.847193	0.059015	0.226803
0	C	0.096656	0.118901	0.179694
0	C	0.049316	0.996246	0.229857
0	C	0.0287783	0.996414	0.234544
0	C	0.115457	0.0671624	0.192373
0	O	0.089505	0.999938	0.21345
0	C	0.955589	0.0692027	0.188496
0	H	0.013463	0.999745	0.138155
0	H	0.0603161	0.0803338	0.182993
0	C	0.0172023	0.0129559	0.231329
0	O	0.00879589	0.100615	0.150883
0	C	0.0339296	0.0971738	0.127769
0	O	0.9732	0.0156614	0.17543
0	O	0.0854494	0.0317987	0.213144
0	F	0.96831	0.109657	0.153552
0	C	0.0786908	0.0145027	0.215011
0	C	0.0577629	0.0129084	0.220694
0	O	0.957907	0.079751	0.174334
0	H	0.971235	0.0143285	0.189293
0	O	0.0525777	0.0738885	0.194108
0	H	0.0634818	0.0936153	0.136353
0	C	0.0251482	0.0929101	0.14682
0	C	0.0978435	0.0980948	0.176114
0	O	0.969766	0.0466472	0.148151
0	C	0.0258332	0.0319724	0.159468
0	O	0.0073767	0.0315326	0.155314
0	Fe	0.10673	0.041733	0.22901
0	Fe	0.986529	0.0424391	0.173652
0	O	0.0327722	0.0804182	0.157582
0	O	0.0166871	0.0595652	0.208379
0	C	0.0538339	0.0942039	0.124098
0	O	0.108224	0.0647447	0.209791
0	C	0.00189525	0.107759	0.197268
0	H	0.0529552	0.0829602	0.205269
0	H	0.00154382	0.0127395	0.234221
0	C	0.0455183	0.0285512	0.217351
0	O	0.0330289	0.0438226	0.172464
0	C	0.0377984	0.018089	0.149036
0	O	0.99888	0.0668277	0.171634
0	O	0.97934	0.0749432	0.136505
0	C	0.0578997	0.0223921	0.145782
0	O	0.986006	0.103216	0.188838
0	Fe	0.0242898	0.0713075	0.183388
0	O	0.966879	0.0548656	0.19208
0	H	0.0642208	0.03369	0.153459
0	H	0.0874836	0.0915163	0.165445
0	C	0.0290998	0.00254726	0.137416
0	C	0.972921	0.0579135	0.133503
0	H	0.0509354	0.0400242	0.208261
0	O	0.00264931	0.0333446	0.197478
0	C	0.0684244	0.0139459	0.131088
0	O	0.0177237	0.0987472	0.194643
0	C	0.0260554	0.0285744	0.222151
0	Fe	0.983448	0.0891753	0.163084
0	H	0.985257	0.00757737	0.174527
0	C	0.0137834	0.041714	0.209681
0	C	0.115041	0.0875994	0.183626
0	F	0.114109	0.0614846	0.147178
0	O	0.0875974	0.0416311	0.126144
0	C	0.0607907	0.997771	0.122005
0	Fe	0.11227	0.0571871	0.120309
0	H	0.0774584	0.0606225	0.236401
0	C	0.0848664	0.0241071	0.12172
0	C	0.813553	0.932682	0.24557
0	O	0.811748	0.887582	0.247463
0	O	0.829822	0.924759	0.249737
0	C	0.817834	0.986144	0.253194
0	C	0.819254	0.966054	0.256194
0	H	0.935255	0.957821	0.251486
0	H	0.798773	0.874308	0.298674
0	O	0.882695	0.962804	0.253366
0	H	0.828685	0.960227	0.267148
0	C	0.794146	0.935313	0.311835
0	H	0.872926	0.923589	0.253053
0	O	0.901834	0.911666	0.357103
0	H	0.887641	0.912122	0.353377
0	H	0.90963	0.902179	0.349495
0	O	0.810193	0.913842	0.28234
0	Fe	0.830841	0.900618	0.266607
0	O	0.849251	0.915025	0.286036
0	F	0.874701	0.976036	0.290484
0	H	0.841856	0.915766	0.298592
0	H	0.861593	0.907322	0.288615
0	H	0.80909	0.939099	0.310777
0	H	0.919962	0.917453	0.286881
0	O	0.85545	0.890466	0.25507
0	Fe	0.832829	0.981582	0.338191
0	C	0.794998	0.957649	0.341055
0	O	0.8131	0.958447	0.341784
0	O	0.853075	0.961004	0.330333
0	H	0.844883	0.950843	0.323661
0	H	0.856639	0.95561	0.343197
0	C	0.935088	0.982697	0.270489
0	C	0.943309	0.966316	0.263116
0	O	0.828871	0.87774	0.282704
0	Fe	0.877057	0.989916	0.26712
0	C	0.79232	0.913831	0.283344
0	H	0.83398	0.982193	0.302105
0	O	0.822285	0.983989	0.31059
0	O	0.931561	0.908805	0.292631
0	C	0.91788	0.990273	0.261056
0	O	0.849458	0.986294	0.263801
0	O	0.941916	0.937636	0.306957
0	C	0.942905	0.992293	0.286338
0	C	0.945461	0.919552	0.302357
0	O	0.844238	0.979559	0.365694
0	Fe	0.794569	0.994232	0.366487
0	H	0.0848076	0.871107	0.32491
0	C	0.0139082	0.870827	0.245408
0	H	0.10772	0.915276	0.340584
0	H	0.957718	0.880294	0.299073
0	Fe	0.0752334	0.928589	0.353564
0	C	0.0612237	0.884399	0.355364
0	O	0.0753692	0.897346	0.355445
0	O	0.0702784	0.92426	0.323498
0	O	0.104352	0.927113	0.346844
0	F	0.0236018	0.92807	0.263254
0	C	0.969451	0.969822	0.285956
0	O	0.0897307	0.895224	0.257435
0	H	0.0360254	0.951803	0.315316
0	C	0.959628	0.985814	0.29511
0	C	0.99081	0.90969	0.333094
0	Fe	0.0311703	0.951502	0.351203
0	H	0.000273509	0.970165	0.345499
0	O	0.0137731	0.974642	0.341614
0	H	0.0160806	0.880923	0.258332
0	H	0.98425	0.965991	0.289803
0	C	0.065328	0.972326	0.356545
0	O	0.0466292	0.952171	0.325214
0	O	0.0444736	0.888494	0.361957
0	C	0.961756	0.908831	0.312302
0	C	0.966518	0.889448	0.307897
0	H	0.00813285	0.883619	0.334385
0	H	0.0133013	0.972625	0.327284
0	O	0.0474276	0.929223	0.359784
0	O	0.075867	0.958616	0.349585
0	H	0.0549457	0.903814	0.278384
0	O	0.990356	0.94476	0.257978
0	H	0.0503728	0.888919	0.294726
0	C	0.982312	0.880273	0.31643
0	H	0.971083	0.933736	0.329162
0	C	0.971931	0.946353	0.255638
0	O	0.0122572	0.934284	0.338802
0	H	0.0802153	0.914395	0.320488
0	H	0.0574008	0.917001	0.321698
0	C	0.961245	0.959813	0.269699
0	C	0.00449598	0.918938	0.345639
0	C	0.974151	0.919413	0.324476
0	O	0.00963432	0.911323	0.361463
0	C	0.994492	0.890366	0.328633
0	O	0.061202	0.895872	0.28857
0	O	0.962981	0.985612	0.363281
0	H	0.0410545	0.989996	0.329891
0	C	0.0666557	0.993024	0.349985
0	O	0.0985622	0.877075	0.293706
0	H	0.110201	0.926541	0.359896
0	Fe	0.0766291	0.874623	0.274244
0	O	0.0503352	0.968431	0.365878
0	C	0.116141	0.872522	0.292379
0	O	0.0532284	0.871443	0.255619
0	O	0.904822	0.996115	0.272166
0	O	0.788039	0.0317909	0.332175
0	H	0.80967	0.105377	0.34703
0	O	0.810757	0.0402891	0.367551
0	F	0.928042	0.996469	0.358931
0	C	0.835526	0.996922	0.259378
0	O	0.821007	0.113379	0.350623
0	H	0.832467	0.104271	0.354349
0	O	0.837897	0.0150634	0.256163
0	H	0.805453	0.113846	0.253887
0	O	0.874485	0.040177	0.264474
0	O	0.871862	0.0137787	0.283599
0	C	0.876509	0.0317819	0.28073
0	C	0.932732	0.0361061	0.32728
0	O	0.824057	0.021904	0.31198
0	Fe	0.817192	0.0296283	0.3403
0	O	0.813741	0.00255646	0.347922
0	O	0.821765	0.0587949	0.33231
0	O	0.84614	0.0284	0.347321
0	C	0.859709	0.0193945	0.337981
0	C	0.906161	0.0396442	0.30197
0	C	0.872533	0.0419593	0.313313
0	C	0.911687	0.035569	0.32171
0	C	0.876961	0.0307134	0.329977
0	C	0.896708	0.028726	0.334541
0	C	0.885955	0.0420743	0.297745
0	H	0.857122	0.0446962	0.309584
0	H	0.915975	0.0405079	0.289678
0	O	0.934607	0.0345031	0.345471
0	O	0.856468	0.00187107	0.332241
0	H	0.901808	0.020673	0.346811
0	H	0.824477	0.0341234	0.304523
0	H	0.936032	0.00614327	0.29138
0	H	0.81653	0.0671774	0.343142
0	H	0.813614	0.0149135	0.305106
0	H	0.836489	0.0602628	0.332202
0	O	0.948898	0.0389084	0.317804
0	O	0.908741	0.109712	0.252442
0	O	0.951681	0.99948	0.325565
0	Fe	0.950167	0.0107736	0.354253
0	O	0.00244326	0.0537113	0.364269
0	H	0.0227153	0.11766	0.260256
0	O	0.974875	0.0242331	0.350206
0	C	0.117307	0.023179	0.320017
0	O	0.117167	0.0403739	0.313998
0	H	0.0960789	0.0695082	0.246133
0	H	0.99019	0.0662781	0.303084
0	C	0.115479	0.0071703	0.306768
0	C	0.0427182	0.018345	0.342069
0	H	0.979085	0.0507025	0.290084
0	C	0.11019	0.0100355	0.287674
0	O	0.088302	0.0578869	0.245728
0	C	0.994131	0.0679687	0.355835
0	O	0.981722	0.0643756	0.342277
0	H	0.0931134	0.00112319	0.365272
0	O	0.090179	0.0504062	0.346518
0	C	0.964938	0.998213	0.312467
0	Fe	0.110964	0.064888	0.329731
0	C	0.0725849	0.026039	0.361514
0	H	0.0505321	0.0469152	0.352107
0	H	0.0802208	0.114683	0.340417
0	O	0.987664	0.052373	0.301343
0	C	0.99537	0.105096	0.352009
0	C	0.0545113	0.0317721	0.352753
0	H	0.98214	0.113167	0.29693
0	O	0.105646	0.0202917	0.249864
0	H	0.0868153	0.0856975	0.309038
0	C	0.112618	0.00361012	0.25318
0	H	0.0777255	0.0654833	0.313937
0	O	0.105031	0.088656	0.344552
0	O	0.0113656	0.0339635	0.331124
0	H	0.10315	0.0231141	0.284359
0	H	0.032153	0.107223	0.277037
0	C	0.0894468	0.0398556	0.361
0	H	0.987301	0.103787	0.338764
0	O	0.0124627	0.0135899	0.355761
0	O	0.979145	0.0104438	0.311986
0	C	0.0503004	0.999465	0.338938
0	C	0.116373	0.997039	0.273305
0	C	0.0208245	0.021327	0.341285
0	Fe	0.98014	0.0366004	0.32693
0	C	0.999692	0.0884101	0.362879
0	O	0.0896381	0.0711388	0.308502
0	C	0.0782302	0.00593126	0.360238
0	O	0.0233053	0.1179	0.274508
0	C	0.116384	0.103238	0.342474
0	O	0.995713	0.118061	0.298999
0	O	0.867164	0.900071	0.406589
0	O	0.81805	0.883039	0.473706
0	Fe	0.887436	0.903083	0.429682
0	O	0.862982	0.906348	0.448678
0	O	0.889212	0.929156	0.392639
0	O	0.889917	0.931709	0.425078
0	C	0.887041	0.939039	0.408716
0	O	0.905035	0.905451	0.455557
0	Fe	0.93368	0.887457	0.421041
0	O	0.908404	0.897609	0.412423
0	O	0.934926	0.90769	0.443384
0	C	0.922805	0.909094	0.457543
0	C	0.834906	0.977563	0.381794
0	C	0.930748	0.91622	0.476437
0	C	0.876426	0.967579	0.427721
0	C	0.861802	0.960085	0.396429
0	C	0.862135	0.981328	0.432116
0	C	0.846845	0.973129	0.399953
0	C	0.847283	0.984046	0.417614
0	C	0.875523	0.956066	0.41021
0	H	0.862969	0.952936	0.382403
0	H	0.887728	0.965275	0.439019
0	H	0.817422	0.885859	0.487987
0	O	0.8161	0.979049	0.383243
0	O	0.806229	0.987646	0.476993
0	H	0.831714	0.887286	0.470182
0	H	0.862148	0.897368	0.460775
0	H	0.864548	0.919615	0.455525
0	C	0.868224	0.886276	0.393981
0	C	0.947797	0.919948	0.394759
0	O	0.930548	0.923141	0.387193
0	Fe	0.906085	0.904132	0.385635
0	O	0.886386	0.875136	0.43332
0	O	0.883492	0.886187	0.383017
0	H	0.841416	0.879137	0.420284
0	C	0.85106	0.872125	0.391416
0	O	0.918284	0.877444	0.375262
0	H	0.946403	0.957246	0.37995
0	H	0.810443	0.97607	0.484303
0	H	0.794431	0.982309	0.47175
0	O	0.951619	0.904472	0.403175
0	C	0.950923	0.920124	0.477315
0	C	0.920338	0.916947	0.494441
0	O	0.918357	0.87032	0.438536
0	C	0.8384	0.869997	0.407478
0	O	0.92185	0.874246	0.477854
0	F	0.956869	0.875606	0.430368
0	O	0.00896979	0.942158	0.444836
0	H	0.987897	0.898811	0.459007
0	H	0.986152	0.916168	0.405442
0	O	0.0231506	0.901038	0.485616
0	C	0.972638	0.985735	0.379253
0	O	0.0590301	0.891414	0.469446
0	C	0.959814	0.953109	0.386951
0	H	0.101081	0.950716	0.414799
0	Fe	0.0159036	0.920685	0.465824
0	H	0.0863971	0.927472	0.472219
0	O	0.999656	0.900991	0.451054
0	H	0.0688982	0.896234	0.423101
0	H	0.959897	0.918249	0.464595
0	F	0.0249476	0.893224	0.395725
0	C	0.0129834	0.943241	0.390586
0	C	0.0970937	0.939753	0.445195
0	O	0.0827223	0.932875	0.382317
0	C	0.076339	0.911973	0.44781
0	O	0.0604444	0.911777	0.393876
0	C	0.0841803	0.923651	0.416148
0	C	0.982404	0.931059	0.401969
0	H	0.00228353	0.953549	0.450544
0	H	0.000177495	0.976679	0.40562
0	C	0.0773669	0.90868	0.428302
0	O	0.0418941	0.913202	0.451648
0	H	0.995138	0.909109	0.440184
0	C	0.972821	0.968363	0.390846
0	C	0.107219	0.955825	0.456844
0	C	0.0960439	0.93818	0.424294
0	C	0.99633	0.946224	0.402675
0	C	0.989322	0.965433	0.402495
0	C	0.0867691	0.926155	0.456523
0	O	0.991098	0.927956	0.479601
0	H	0.0223189	0.946223	0.441465
0	O	0.0289605	0.942923	0.479058
0	C	0.963357	0.934993	0.394053
0	O	0.0252457	0.931567	0.396156
0	C	0.0580809	0.904949	0.456957
0	C	0.0756621	0.9229	0.396086
0	O	0.109284	0.953766	0.475163
0	Fe	0.0368999	0.875849	0.479374
0	Fe	0.0354024	0.911006	0.378118
0	O	0.113908	0.970861	0.447233
0	O	0.0245306	0.875187	0.451668
0	C	0.960495	0.924039	0.493979
0	C	0.981811	0.921265	0.494092
0	C	0.953215	0.872201	0.492002
0	O	0.0136686	0.951955	0.374761
0	H	0.905158	0.100021	0.487396
0	H	0.837046	0.995558	0.418749
0	O	0.878664	0.996254	0.462861
0	C	0.868327	0.110761	0.402718
0	O	0.806569	0.0545806	0.482455
0	Fe	0.888809	0.019834	0.484002
0	C	0.866507	0.997199	0.447823
0	O	0.858762	0.0133565	0.444378
0	O	0.840558	0.0585533	0.461359
0	O	0.853269	0.0518017	0.432811
0	C	0.838519	0.0560023	0.442695
0	Fe	0.867184	0.0639406	0.476656
0	O	0.877089	0.0394698	0.467283
0	Fe	0.876638	0.035394	0.438826
0	O	0.913498	0.0216877	0.468708
0	O	0.876032	0.0295576	0.408559
0	O	0.901635	0.0186346	0.439371
0	C	0.915743	0.0212217	0.45099
0	O	0.893806	0.0578889	0.433078
0	O	0.878184	0.0787507	0.452893
0	C	0.88883	0.0747025	0.437484
0	H	0.874487	0.0423226	0.40086
0	H	0.88687	0.0218747	0.403598
0	C	0.904913	0.103944	0.421123
0	C	0.88905	0.0905021	0.422859
0	C	0.871519	0.0932948	0.41322
0	H	0.85949	0.0842917	0.414652
0	C	0.811437	0.0750922	0.429003
0	C	0.80706	0.0461138	0.399943
0	C	0.820266	0.0565028	0.431635
0	C	0.817196	0.0418155	0.417158
0	H	0.826659	0.0287309	0.417767
0	H	0.803084	0.0601506	0.46912
0	H	0.815644	0.0652008	0.487376
0	C	0.800298	0.078515	0.411665
0	H	0.817318	0.0881785	0.436556
0	H	0.917273	0.102506	0.430475
0	C	0.796589	0.0984303	0.404826
0	C	0.933932	0.029348	0.442633
0	H	0.929033	0.0151415	0.413917
0	C	0.937919	0.0251266	0.422734
0	O	0.856115	0.0903198	0.484987
0	C	0.806731	0.0327729	0.383179
0	O	0.805042	0.104255	0.388752
0	C	0.797938	0.063724	0.398029
0	O	0.800555	0.0152985	0.385566
0	O	0.793175	0.109775	0.418319
0	H	0.863948	0.101333	0.479505
0	H	0.942214	0.0432002	0.468745
0	O	0.946847	0.0208794	0.383518
0	H	0.826521	0.019861	0.477271
0	O	0.893325	0.070511	0.491386
0	O	0.835545	0.112472	0.412493
0	C	0.945748	0.0417225	0.453561
0	O	0.822715	0.0229961	0.490641
0	C	0.951692	0.0373127	0.414163
0	H	0.843582	0.091051	0.477807
0	C	0.84729	0.116707	0.399157
0	O	0.78815	0.0219487	0.468319
0	H	0.789021	0.065989	0.384747
0	F	0.819145	0.11926	0.447995
0	Fe	0.116983	0.0204685	0.492512
0	C	0.959496	0.0538414	0.444417
0	O	0.966287	0.0698263	0.475151
0	C	0.969602	0.0683835	0.456937
0	C	0.962218	0.0514037	0.424696
0	C	0.956524	0.0333999	0.393417
0	H	0.105291	0.086758	0.399449
0	O	0.982233	0.0807314	0.447767
0	O	0.983389	0.000268087	0.38386
0	O	0.033317	0.102754	0.420004
0	H	0.989918	0.0887631	0.458003
0	C	0.110239	0.0261251	0.449692
0	O	0.102024	0.0264998	0.466774
0	O	0.0679284	0.0884717	0.442875
0	C	0.091129	0.0546171	0.435468
0	O	0.0739136	0.0998859	0.41309
0	Fe	0.046217	0.107433	0.449378
0	H	0.0813489	0.0536267	0.447643
0	O	0.0555786	0.109859	0.478801
0	C	0.107527	0.0419186	0.434953
0	H	0.0162539	0.0788301	0.387775
0	H	0.0185136	0.0178489	0.396186
0	O	0.972442	0.0412952	0.387094
0	H	0.0187555	0.0415221	0.394338
0	O	0.0102034	0.0302439	0.395865
0	C	0.0170412	0.109723	0.387753
0	H	0.972043	0.0618948	0.416608
0	F	0.0318305	0.0856459	0.457312
0	C	0.0114091	0.0910802	0.379921
0	C	0.0919172	0.0722411	0.424872
0	C	0.0772714	0.0878182	0.426901
0	C	0.106857	0.0758551	0.411147
0	C	0.0324532	0.113484	0.404138
0	Fe	0.991603	0.0266024	0.372068
0	O	0.104328	0.0371143	0.371597
0	H	0.0752153	0.114053	0.380394
0	H	0.807132	0.875602	0.530352
0	H	0.86347	0.987237	0.59699
0	H	0.904864	0.912878	0.494797
0	C	0.908784	0.871168	0.610757
0	O	0.920937	0.98212	0.570158
0	O	0.906333	0.978278	0.598689
0	Fe	0.913509	0.958745	0.554103
0	O	0.914476	0.942845	0.578112
0	O	0.913814	0.977197	0.529052
0	Fe	0.90093	0.950167	0.601479
0	H	0.894734	0.911591	0.572083
0	O	0.903693	0.901849	0.578989
0	O	0.908473	0.936212	0.535931
0	O	0.929826	0.915677	0.546328
0	C	0.921304	0.923238	0.532201
0	Fe	0.929385	0.918313	0.57677
0	O	0.935867	0.919212	0.606602
0	O	0.882796	0.964013	0.555299
0	O	0.875164	0.95342	0.584828
0	C	0.869886	0.960374	0.568075
0	O	0.827509	0.90192	0.587921
0	H	0.839062	0.910658	0.5898
0	H	0.831697	0.890912	0.579044
0	C	0.930569	0.920309	0.512537
0	C	0.834307	0.956068	0.576864
0	C	0.840989	0.978849	0.551023
0	C	0.814002	0.960369	0.575243
0	C	0.820396	0.984	0.550642
0	C	0.807995	0.976022	0.564199
0	C	0.848624	0.966065	0.565821
0	H	0.83881	0.944936	0.586144
0	H	0.906361	0.891937	0.568521
0	C	0.917445	0.988025	0.587127
0	H	0.90222	0.97409	0.521257
0	H	0.850472	0.984279	0.539864
0	O	0.894349	0.92075	0.608663
0	F	0.945287	0.896652	0.577403
0	O	0.80442	0.931959	0.594601
0	O	0.944148	0.954228	0.551502
0	C	0.798931	0.94839	0.584486
0	H	0.792667	0.979572	0.564731
0	C	0.889887	0.877949	0.613546
0	O	0.865242	0.988723	0.611226
0	H	0.879899	0.877161	0.601753
0	O	0.824842	0.991047	0.61387
0	H	0.925396	0.972146	0.521873
0	O	0.790101	0.906103	0.547941
0	H	0.929878	0.879087	0.511139
0	C	0.951238	0.922219	0.511837
0	C	0.9455	0.876372	0.510185
0	O	0.79389	0.891712	0.612332
0	H	0.880287	0.918459	0.606639
0	H	0.791452	0.924233	0.597824
0	O	0.926743	0.948791	0.616988
0	C	0.938009	0.93402	0.618277
0	Fe	0.822981	0.888968	0.615824
0	O	0.851795	0.885952	0.619249
0	H	0.878065	0.99335	0.612741
0	F	0.887147	0.869798	0.548748
0	C	0.80695	0.991476	0.618538
0	O	0.111359	0.994258	0.564471
0	H	0.113656	0.952988	0.531876
0	O	0.0505217	0.872043	0.505245
0	O	0.112935	0.948371	0.517814
0	C	0.114233	0.975771	0.601873
0	C	0.955348	0.872455	0.527075
0	H	0.110153	0.967504	0.588745
0	O	0.954245	0.933174	0.574801
0	C	0.0283172	0.948527	0.496363
0	H	0.00576805	0.982115	0.494563
0	H	0.0633541	0.960458	0.507093
0	C	0.0337008	0.968929	0.500255
0	C	0.0206646	0.985318	0.495934
0	C	0.0531271	0.972808	0.504993
0	O	0.0146202	0.876853	0.517793
0	H	0.0082142	0.891525	0.594114
0	C	0.982417	0.967286	0.548212
0	O	0.0427686	0.949367	0.579726
0	H	0.99919	0.907423	0.543858
0	O	0.028519	0.920941	0.580713
0	O	0.0483534	0.901898	0.517732
0	O	0.0231367	0.937251	0.510158
0	C	0.0713884	0.879585	0.531931
0	C	0.978317	0.950397	0.558166
0	O	0.0929581	0.942475	0.609632
0	C	0.0792818	0.889295	0.564883
0	H	0.0320543	0.971125	0.554387
0	O	0.0195677	0.885081	0.599966
0	H	0.020539	0.900376	0.549854
0	F	0.0784882	0.959571	0.575985
0	H	0.961009	0.923629	0.524941
0	H	0.0683841	0.908475	0.543805
0	O	0.0131916	0.910516	0.542228
0	C	0.0291169	0.938205	0.575377
0	O	0.0922214	0.979455	0.502566
0	Fe	0.0373154	0.908959	0.606819
0	C	0.0135564	0.946455	0.563484
0	O	0.990068	0.909731	0.506948
0	H	0.970106	0.976157	0.543184
0	C	0.0711701	0.90218	0.58116
0	C	0.958006	0.945035	0.561136
0	Fe	0.0675732	0.945509	0.594329
0	H	0.990417	0.926766	0.574954
0	O	0.0598269	0.972226	0.60564
0	C	0.0747153	0.894447	0.545854
0	Fe	0.0188113	0.90642	0.512736
0	C	0.0174881	0.964425	0.553565
0	O	0.0596606	0.894807	0.593254
0	C	0.0564923	0.884671	0.517324
0	C	0.00140783	0.975335	0.547083
0	C	0.994255	0.940158	0.566953
0	O	0.0752503	0.920277	0.579457
0	O	0.0544098	0.931194	0.614365
0	C	0.0605829	0.991726	0.503457
0	H	0.0266563	0.879981	0.58857
0	H	0.97641	0.91651	0.618618
0	O	0.0135485	0.921641	0.617979
0	C	0.0873496	0.87073	0.568497
0	Fe	0.119398	0.971059	0.499221
0	H	0.0916055	0.86955	0.583279
0	C	0.852974	0.118539	0.600186
0	H	0.896152	0.0640164	0.616423
0	C	0.814387	0.107524	0.611413
0	O	0.808697	0.994795	0.51871
0	H	0.800318	0.104442	0.618428
0	O	0.909779	0.111084	0.498709
0	Fe	0.796028	0.0100419	0.494866
0	C	0.822252	0.0739497	0.613048
0	C	0.809917	0.998342	0.536672
0	Fe	0.941811	0.115105	0.59843
0	F	0.899816	0.00134067	0.500454
0	C	0.929601	0.00625093	0.614584
0	C	0.926049	0.00572923	0.594086
0	C	0.935477	0.0185312	0.581333
0	H	0.930642	0.0170964	0.566178
0	O	0.800212	0.0123059	0.543987
0	C	0.799902	0.0611363	0.53731
0	O	0.819908	0.0206181	0.588564
0	C	0.837053	0.0247268	0.582365
0	O	0.851089	0.0236361	0.593778
0	O	0.901063	0.04128	0.503529
0	C	0.903063	0.0599535	0.50325
0	O	0.865517	0.0187623	0.503884
0	O	0.858125	0.0515975	0.501277
0	C	0.857545	0.0346003	0.510366
0	C	0.917563	0.0709453	0.516683
0	C	0.937794	0.0688322	0.513272
0	C	0.831551	0.048498	0.526692
0	C	0.850392	0.0278481	0.547399
0	C	0.818724	0.0524672	0.541179
0	C	0.837629	0.0329615	0.562438
0	C	0.822589	0.0469988	0.559314
0	C	0.846437	0.0351329	0.528633
0	H	0.864603	0.0192232	0.549537
0	H	0.812896	0.0509995	0.570691
0	C	0.911507	0.0840885	0.532207
0	H	0.943161	0.0594241	0.502255
0	Fe	0.805672	0.0331701	0.611014
0	O	0.927495	0.0997027	0.576985
0	H	0.829356	0.0560692	0.513498
0	H	0.896571	0.0853683	0.535007
0	C	0.945085	0.0939896	0.537707
0	C	0.925119	0.0960469	0.542052
0	O	0.79721	0.0705024	0.521577
0	C	0.846258	0.0990894	0.598157
0	C	0.921249	0.107676	0.560929
0	O	0.816044	0.0597203	0.602503
0	C	0.826584	0.0935672	0.603936
0	H	0.857785	0.0884104	0.595196
0	O	0.879053	0.106912	0.512059
0	C	0.951684	0.0794173	0.525002
0	C	0.951047	0.029832	0.587962
0	O	0.935457	0.0930408	0.616523
0	C	0.893885	0.117941	0.509076
0	H	0.0184517	0.0936008	0.615009
0	O	0.105847	0.11769	0.616054
0	C	0.0158641	0.021584	0.505489
0	H	0.966859	0.0390072	0.612952
0	O	0.986885	0.00551318	0.54572
0	H	0.11105	0.0801232	0.606591
0	C	0.0820434	0.994627	0.504302
0	O	0.0328166	0.0939586	0.617602
0	O	0.0584692	0.0227161	0.537298
0	H	0.991894	0.0825052	0.594363
0	F	0.960657	0.0177797	0.520625
0	O	0.0875329	0.116411	0.578178
0	H	0.0536168	0.021284	0.499137
0	C	0.954333	0.0303373	0.608419
0	H	0.0492778	0.0058165	0.590578
0	O	0.0423749	0.0598378	0.540753
0	C	0.970833	0.0701063	0.530543
0	Fe	0.981978	0.0304693	0.533353
0	C	0.0339224	0.0298208	0.604269
0	C	0.00253624	0.996319	0.544557
0	O	0.977018	0.0566037	0.520024
0	O	0.980052	0.0464697	0.580315
0	H	0.0638277	0.013652	0.546653
0	C	0.0276476	0.00471685	0.497843
0	H	0.0485977	0.100807	0.566508
0	C	0.0535906	0.0978754	0.517249
0	F	0.964716	0.102545	0.595063
0	H	0.0636321	0.0722531	0.595272
0	C	0.0545403	0.104994	0.552037
0	O	0.101367	0.0820444	0.595864
0	O	0.962158	0.0360818	0.555967
0	C	0.0295567	0.0388868	0.585545
0	H	0.0100808	0.0923823	0.583333
0	C	0.0480588	0.00706413	0.497717
0	Fe	0.0822563	0.10335	0.605509
0	O	0.019502	0.00474797	0.541714
0	H	0.955838	0.101618	0.546916
0	C	0.035411	0.0772745	0.541512
0	O	0.998274	0.0199429	0.509792
0	H	0.0676085	0.0337821	0.535741
0	F	0.112212	0.0454721	0.500733
0	O	0.0895918	0.0118807	0.503805
0	H	0.109623	0.0893896	0.586103
0	O	0.0344914	0.0290244	0.570448
0	C	0.965123	0.0385814	0.574006
0	C	0.0475809	0.093565	0.536679
0	H	0.0470896	0.0880084	0.506115
0	O	0.977307	0.0731622	0.547806
0	Fe	0.99938	0.0636271	0.564455
0	C	0.0434627	0.011849	0.603948
0	O	0.0196449	0.0546775	0.58471
0	Fe	0.0306764	0.0322439	0.54197
0	O	0.025354	0.035669	0.512544
0	O	0.00406401	0.04187	0.547148
0	O	0.0181383	0.0806998	0.547988
0	O	0.996558	0.087937	0.581507
0	C	0.0629127	0.116043	0.512628
0	O	0.059093	0.0868376	0.594947
0	C	0.0683479	0.119142	0.549284
0	O	0.806817	0.981678	0.721746
0	C	0.823944	0.984884	0.728938
0	O	0.815178	0.913956	0.657168
0	C	0.897486	0.888578	0.645786
0	O	0.855808	0.900917	0.647496
0	O	0.918701	0.897449	0.713807
0	Fe	0.831225	0.891343	0.663357
0	O	0.842805	0.907276	0.686897
0	O	0.810153	0.881349	0.683859
0	H	0.891475	0.893854	0.659032
0	H	0.906105	0.893128	0.719654
0	H	0.856346	0.903358	0.689535
0	H	0.844199	0.920772	0.681039
0	H	0.927231	0.901874	0.724228
0	C	0.853801	0.969178	0.713979
0	C	0.860905	0.979594	0.680871
0	C	0.839311	0.984537	0.714373
0	C	0.86497	0.967469	0.697401
0	H	0.868696	0.975774	0.667523
0	H	0.852944	0.957769	0.726378
0	O	0.882132	0.939357	0.709803
0	C	0.879381	0.951255	0.695382
0	O	0.889424	0.949274	0.677912
0	H	0.895851	0.934657	0.678423
0	C	0.916026	0.880012	0.643648
0	H	0.939833	0.956603	0.651752
0	C	0.814096	0.923257	0.640842
0	O	0.819762	0.878888	0.641125
0	C	0.862667	0.891756	0.632468
0	C	0.883364	0.886597	0.630925
0	H	0.894911	0.959	0.638842
0	C	0.8024	0.941414	0.639445
0	C	0.809766	0.957377	0.629439
0	O	0.824025	0.917961	0.626117
0	C	0.79821	0.973342	0.626018
0	O	0.927931	0.883897	0.67642
0	O	0.886193	0.957363	0.626974
0	H	0.892097	0.979181	0.735977
0	C	0.847174	0.993937	0.681428
0	H	0.877822	0.945788	0.63011
0	H	0.807571	0.890002	0.739738
0	O	0.918231	0.990638	0.693399
0	C	0.92868	0.874705	0.660384
0	H	0.825188	0.957315	0.625403
0	H	0.910413	0.991141	0.680641
0	Fe	0.932537	0.872761	0.704312
0	C	0.952799	0.947845	0.649838
0	C	0.795697	0.870459	0.680158
0	O	0.894223	0.993713	0.741366
0	C	0.921723	0.873007	0.625354
0	O	0.787921	0.870615	0.663204
0	C	0.118495	0.98026	0.636127
0	O	0.953752	0.976622	0.682543
0	C	0.954902	0.93561	0.633335
0	O	0.959193	0.887817	0.707869
0	C	0.969392	0.970447	0.674235
0	O	0.069355	0.916214	0.649765
0	C	0.972929	0.888354	0.695356
0	O	0.0427072	0.879708	0.701144
0	C	0.0254874	0.907661	0.691361
0	H	0.0528551	0.964529	0.669201
0	H	0.0477172	0.943049	0.675575
0	H	0.0103843	0.88257	0.680586
0	O	0.057494	0.951156	0.669046
0	O	0.0267792	0.93056	0.646886
0	C	0.0238231	0.924598	0.702629
0	H	0.0370153	0.932971	0.704565
0	C	0.990248	0.902343	0.698072
0	C	0.00602735	0.930762	0.711992
0	O	0.0859841	0.917146	0.724689
0	H	0.0299507	0.890792	0.636927
0	H	0.998734	0.947306	0.666161
0	C	0.00805274	0.897032	0.688258
0	O	0.0436356	0.967102	0.633637
0	O	0.0741886	0.878937	0.723149
0	O	0.0605676	0.904914	0.691366
0	O	0.990254	0.951975	0.737049
0	C	0.0118183	0.927226	0.635787
0	C	0.990671	0.930555	0.642943
0	Fe	0.055708	0.941183	0.641133
0	O	0.0837004	0.953861	0.637646
0	C	0.0439127	0.895565	0.691816
0	O	0.0216484	0.958007	0.726888
0	H	0.0837704	0.920178	0.651477
0	C	0.986458	0.943963	0.657158
0	H	0.975456	0.922802	0.715338
0	C	0.0062373	0.947522	0.725414
0	C	0.973935	0.926877	0.630123
0	C	0.0707541	0.918742	0.734513
0	C	0.969247	0.952738	0.661093
0	O	0.985235	0.979669	0.676525
0	F	0.101495	0.911415	0.687544
0	O	0.0426671	0.895576	0.632412
0	Fe	0.0871591	0.895319	0.703595
0	O	0.0545235	0.912795	0.727913
0	C	0.988891	0.919589	0.708914
0	Fe	0.0480259	0.884072	0.729832
0	F	0.0159179	0.991686	0.697501
0	O	0.0200767	0.890032	0.737486
0	H	0.0493276	0.883262	0.628806
0	O	0.115175	0.890277	0.716547
0	C	0.0965251	0.953124	0.62386
0	O	0.974444	0.876965	0.680606
0	H	0.991828	0.967058	0.742037
0	O	0.0892856	0.871739	0.68639
0	C	0.111003	0.969405	0.621068
0	C	0.0494947	0.978202	0.619901
0	H	0.019952	0.902616	0.744482
0	C	0.11822	0.884624	0.734705
0	H	0.115918	0.975302	0.650635
0	H	0.841756	0.118632	0.72283
0	C	0.836979	0.996956	0.698602
0	H	0.910427	0.999302	0.702095
0	O	0.842663	0.998315	0.648145
0	H	0.921398	0.996339	0.623704
0	O	0.908085	0.101431	0.630218
0	H	0.826677	0.00851947	0.698757
0	O	0.939308	0.00796058	0.657337
0	O	0.928761	0.0303049	0.692873
0	C	0.932139	0.0461276	0.683741
0	O	0.861179	0.0535066	0.64248
0	C	0.874191	0.0405109	0.638503
0	Fe	0.832699	0.048369	0.648865
0	O	0.837697	0.0664763	0.672978
0	O	0.82457	0.0717363	0.631484
0	O	0.840942	0.0250708	0.667161
0	C	0.84333	0.00640968	0.664612
0	H	0.824806	0.0694739	0.678397
0	H	0.842128	0.0797071	0.667943
0	C	0.83654	0.104025	0.727157
0	C	0.812236	0.0781562	0.723247
0	C	0.823319	0.0670706	0.736831
0	C	0.820178	0.0964509	0.717199
0	H	0.799773	0.0724848	0.716533
0	C	0.902673	0.0425394	0.662237
0	C	0.926311	0.0675147	0.655696
0	C	0.893836	0.0463774	0.643061
0	C	0.918325	0.0703973	0.636011
0	C	0.919124	0.0529375	0.667537
0	H	0.935252	0.0777589	0.662956
0	H	0.897087	0.0330166	0.672666
0	O	0.803673	0.0440992	0.658832
0	Fe	0.944935	0.00519137	0.688279
0	C	0.902835	0.0588663	0.629819
0	C	0.947358	0.0195359	0.644
0	C	0.921115	0.0890874	0.62648
0	O	0.828351	0.0305413	0.628075
0	O	0.871375	0.023841	0.63194
0	C	0.809873	0.108212	0.701861
0	C	0.943323	0.0193044	0.622154
0	O	0.948021	0.0539056	0.686137
0	O	0.951125	0.00324136	0.719964
0	H	0.790108	0.0167781	0.67474
0	Fe	0.846628	0.00987954	0.620952
0	O	0.792693	0.115426	0.704482
0	F	0.919364	0.0975663	0.7418
0	C	0.846807	0.0933611	0.741154
0	O	0.786317	0.0439786	0.632389
0	C	0.787246	0.0438884	0.650466
0	O	0.820023	0.113382	0.686974
0	H	0.892501	0.116464	0.661311
0	O	0.797025	0.00675864	0.620114
0	H	0.0329092	0.997367	0.65102
0	H	0.064593	0.0013037	0.725712
0	O	0.981817	0.994907	0.718124
0	H	0.0493937	0.016099	0.721877
0	H	0.0171797	0.0503509	0.62095
0	H	0.066121	0.116152	0.657167
0	H	0.035267	0.0828342	0.626046
0	H	0.112633	0.0341038	0.669228
0	O	0.117369	0.0381116	0.682612
0	H	0.117489	0.0528014	0.682402
0	O	0.955559	0.0348108	0.648825
0	C	0.966477	0.997056	0.728511
0	O	0.969754	0.0181301	0.683903
0	O	0.005713	0.0114207	0.665207
0	Fe	0.99354	0.00446251	0.691187
0	O	0.989429	0.0544737	0.69244
0	O	0.966863	0.114168	0.71974
0	C	0.0260508	0.0532679	0.73005
0	O	0.972812	0.0727127	0.659448
0	C	0.0331017	0.00613899	0.637289
0	H	0.070884	0.0799503	0.708637
0	H	0.970558	0.0697894	0.645502
0	O	0.0517065	0.00525523	0.730683
0	O	0.0801576	0.0889014	0.63154
0	H	0.00552054	0.088146	0.699476
0	O	0.0560823	0.106569	0.653323
0	C	0.00770445	0.0257051	0.653713
0	C	0.023079	0.114168	0.721754
0	C	0.0285059	0.093615	0.719642
0	O	0.0813089	0.0811149	0.721182
0	H	0.0935573	0.0890149	0.636457
0	C	0.0413054	0.0860353	0.733794
0	O	0.0914057	0.0512448	0.709594
0	H	0.98624	0.0775527	0.659811
0	H	0.0239624	0.0386147	0.73428
0	O	0.996805	0.0405837	0.655396
0	C	0.00199756	0.0474232	0.704072
0	C	0.021577	0.0232441	0.637419
0	C	0.0149325	0.0813874	0.710293
0	C	0.0139172	0.0613584	0.715326
0	C	0.0952858	0.0670886	0.718934
0	O	0.00544419	0.0287442	0.704715
0	Fe	0.971908	0.044461	0.671195
0	H	0.113414	0.00875254	0.727681
0	H	0.0771696	0.0755596	0.627537
0	C	0.0393955	0.0652536	0.739319
0	H	0.996788	0.013447	0.743295
0	C	0.115373	0.0711051	0.725901
0	H	0.112686	0.101987	0.726407
0	O	0.016573	0.114206	0.65028
0	C	0.0419336	0.998687	0.619883
0	C	0.0238024	0.0363063	0.62062
0	H	0.0514822	0.0945608	0.743308
0	H	0.974734	0.103866	0.713956
0	H	0.00686238	0.108408	0.642016
0	C	0.789347	0.95543	0.809081
0	O	0.857788	0.874708	0.84721
0	O	0.791529	0.965312	0.846848
0	O	0.787974	0.871807	0.772899
0	C	0.912212	0.980739	0.868816
0	C	0.881364	0.92264	0.867014
0	C	0.860398	0.875114	0.796404
0	H	0.818153	0.908902	0.745489
0	O	0.804923	0.90249	0.7468
0	H	0.930425	0.875926	0.778575
0	O	0.827664	0.991845	0.746477
0	O	0.830201	0.880875	0.770526
0	O	0.938281	0.875712	0.862033
0	O	0.795015	0.966071	0.758456
0	H	0.804004	0.963107	0.812787
0	C	0.8047	0.878628	0.818636
0	H	0.826155	0.971121	0.837816
0	O	0.808721	0.891514	0.806483
0	H	0.810963	0.915216	0.838969
0	Fe	0.90227	0.898894	0.836154
0	F	0.902976	0.917947	0.817474
0	O	0.872612	0.897314	0.829593
0	H	0.892191	0.954934	0.849779
0	O	0.802984	0.98469	0.782352
0	Fe	0.804963	0.89597	0.776673
0	O	0.823458	0.920519	0.781441
0	H	0.826851	0.920422	0.794849
0	H	0.817706	0.933609	0.778091
0	H	0.854448	0.890284	0.79562
0	C	0.810332	0.903017	0.848084
0	H	0.906019	0.987545	0.798778
0	O	0.898922	0.972125	0.7663
0	O	0.830015	0.976399	0.850874
0	C	0.808301	0.883439	0.840349
0	C	0.865005	0.880512	0.831283
0	O	0.930766	0.89973	0.841297
0	O	0.897372	0.918921	0.857601
0	O	0.908702	0.879461	0.813351
0	H	0.925014	0.956188	0.808554
0	O	0.89789	0.879259	0.856072
0	O	0.920315	0.956677	0.822186
0	Fe	0.937164	0.976408	0.837044
0	H	0.906092	0.961102	0.821145
0	C	0.942616	0.890452	0.851897
0	O	0.924786	0.968943	0.862532
0	C	0.793966	0.969993	0.776127
0	H	0.831634	0.990031	0.850149
0	O	0.947307	0.982447	0.810718
0	C	0.886714	0.957225	0.864257
0	H	0.948585	0.980275	0.766605
0	C	0.899072	0.989777	0.760591
0	O	0.868832	0.909541	0.868186
0	C	0.808261	0.905623	0.869051
0	H	0.0169538	0.880804	0.747543
0	C	0.989436	0.924929	0.868164
0	C	0.976233	0.892398	0.867627
0	C	0.0903968	0.888807	0.866363
0	C	0.0623716	0.875836	0.768711
0	O	0.105365	0.876462	0.745305
0	H	0.955691	0.919299	0.832017
0	H	0.0116232	0.983826	0.866829
0	O	0.956942	0.954399	0.837947
0	H	0.0569928	0.955273	0.746398
0	H	0.0388068	0.878113	0.842872
0	O	0.113519	0.927804	0.805088
0	C	0.051028	0.896617	0.797026
0	C	0.965454	0.915575	0.844072
0	H	0.0933577	0.908038	0.766754
0	O	0.978061	0.988588	0.820965
0	O	0.00906028	0.988359	0.853982
0	O	0.050936	0.98471	0.765504
0	C	0.964838	0.987237	0.807556
0	C	0.0839609	0.920386	0.768391
0	C	0.0575708	0.878443	0.789041
0	O	0.0544967	0.888535	0.757703
0	C	0.0844742	0.927914	0.787057
0	C	0.0443314	0.879176	0.828307
0	H	0.0777405	0.952655	0.804765
0	Fe	0.979495	0.991596	0.85282
0	O	0.976728	0.963484	0.860375
0	O	0.0919363	0.881755	0.849344
0	Fe	0.110559	0.885508	0.82583
0	C	0.970178	0.950243	0.849485
0	C	0.074293	0.945076	0.791297
0	O	0.0404504	0.917036	0.846345
0	C	0.962777	0.898182	0.853291
0	C	0.0386486	0.914088	0.826502
0	C	0.059207	0.975852	0.779026
0	C	0.064116	0.954736	0.777023
0	C	0.0444745	0.895921	0.816767
0	C	0.975785	0.929898	0.853516
0	H	0.0386754	0.932767	0.849254
0	O	0.0322918	0.928604	0.816576
0	H	0.0506701	0.908591	0.78615
0	C	0.072448	0.928632	0.753529
0	O	0.0918687	0.905138	0.81305
0	C	0.097485	0.919945	0.8028
0	O	0.0631609	0.983805	0.795191
0	C	0.0637362	0.946567	0.757641
0	H	0.0486537	0.9793	0.83304
0	O	0.0374628	0.986552	0.828354
0	H	0.0299479	0.976463	0.82212
0	C	0.961231	0.99027	0.767705
0	O	0.916727	0.997279	0.833453
0	O	0.952291	0.995375	0.851453
0	O	0.861132	0.114799	0.765444
0	O	0.796229	0.0494385	0.746182
0	H	0.841068	0.104286	0.798068
0	O	0.789574	0.00664082	0.750787
0	C	0.814412	0.0486352	0.744547
0	C	0.839133	0.0745998	0.746971
0	H	0.796532	0.013873	0.823395
0	C	0.911471	0.00171385	0.793099
0	O	0.869292	0.0161041	0.852739
0	O	0.799955	0.00250512	0.862828
0	H	0.855097	0.0869903	0.792915
0	O	0.906055	0.105758	0.828444
0	O	0.823816	0.0338519	0.749878
0	O	0.853043	0.0985825	0.801931
0	O	0.93069	0.0862034	0.803123
0	O	0.873795	0.0789648	0.82312
0	Fe	0.901823	0.0834195	0.811133
0	O	0.910836	0.0646569	0.8344
0	Fe	0.905983	0.100079	0.765191
0	O	0.892963	0.100477	0.790358
0	O	0.898097	0.0607546	0.793359
0	C	0.908757	0.0577164	0.778956
0	O	0.913876	0.0710911	0.76785
0	O	0.880377	0.0926269	0.751589
0	C	0.863675	0.100998	0.753065
0	H	0.905964	0.0693491	0.847644
0	H	0.902481	0.0527731	0.831733
0	O	0.929539	0.0259827	0.836736
0	C	0.921945	0.0134547	0.826388
0	Fe	0.813075	0.00863853	0.766656
0	F	0.835329	0.00884671	0.781485
0	O	0.79796	0.0252265	0.787457
0	C	0.91047	0.0243233	0.765126
0	C	0.925795	0.0333213	0.796576
0	C	0.908482	0.00556723	0.773161
0	C	0.920825	0.0154811	0.805148
0	C	0.917369	0.0384163	0.778434
0	H	0.932407	0.0451221	0.805597
0	H	0.903904	0.0276566	0.751304
0	H	0.84543	0.066906	0.75862
0	H	0.873495	0.0835325	0.836416
0	C	0.939915	0.0994364	0.793635
0	H	0.877461	0.0201693	0.839359
0	O	0.931876	0.109014	0.779891
0	Fe	0.938926	0.0173853	0.86468
0	O	0.914847	0.99898	0.869162
0	H	0.929195	0.116274	0.855741
0	C	0.87038	0.0311657	0.865314
0	O	0.879042	0.0467958	0.860406
0	C	0.990556	0.115624	0.785026
0	H	0.0669963	0.119296	0.805713
0	C	0.997011	0.110309	0.839256
0	O	0.0596223	0.0399035	0.747701
0	C	0.970323	0.998793	0.750261
0	O	0.0911897	0.0351896	0.810238
0	O	0.057952	0.0221549	0.786724
0	H	0.0144827	0.00194867	0.854213
0	O	0.0916903	0.0383878	0.768391
0	C	0.968742	0.9948	0.787644
0	O	0.0729353	0.0077111	0.823981
0	H	0.964352	0.112318	0.768158
0	C	0.0250446	0.0594856	0.833996
0	C	0.961121	0.102107	0.798063
0	O	0.0533138	0.0609434	0.770461
0	C	0.988882	0.107719	0.819493
0	H	0.0676927	0.00637546	0.837529
0	Fe	0.0490481	0.00585364	0.807343
0	C	0.999363	0.116035	0.803607
0	O	0.0264572	0.0177357	0.762345
0	C	0.979911	0.0355929	0.852426
0	C	0.00638152	0.0525362	0.833636
0	O	0.0230211	0.00465539	0.791432
0	O	0.0376994	0.0293211	0.823103
0	C	0.96937	0.100927	0.816459
0	C	0.995295	0.011715	0.773427
0	C	0.971348	0.109571	0.782277
0	F	0.0854384	0.0696241	0.792931
0	C	0.994083	0.0526833	0.849837
0	H	0.961019	0.0955763	0.828745
0	H	0.988232	0.0141782	0.802788
0	O	0.0825134	0.00879723	0.757442
0	C	0.0311185	0.071809	0.848672
0	Fe	0.071973	0.0467808	0.78996
0	O	0.985064	0.0198216	0.844381
0	H	0.044241	0.0793434	0.84723
0	C	0.0520566	0.0557735	0.753272
0	H	0.00154491	0.0438447	0.821041
0	O	0.963312	0.0368418	0.86233
0	C	0.983421	0.00873528	0.789091
0	O	0.0523176	0.0565039	0.81222
0	H	0.081993	0.996859	0.822175
0	C	0.0158455	0.0130237	0.77623
0	C	0.115666	0.0141556	0.757497
0	C	0.987807	0.00921932	0.754624
0	H	0.0921913	0.0460636	0.819741
0	Fe	0.0550866	0.0138042	0.759481
0	C	0.0178326	0.0761816	0.863992
0	O	0.986478	0.103986	0.853967
0	C	0.000683132	0.0646774	0.865679
0	C	0.0395565	0.0478305	0.822769
0	C	0.0955931	0.0210091	0.761385
0	H	0.119403	0.0124873	0.788629
0	H	0.0534728	0.118472	0.84407
0	Fe	0.881122	0.988864	0.960608
0	O	0.883292	0.961959	0.969418
0	O	0.843607	0.954496	0.971218
0	C	0.837948	0.97148	0.965776
0	Fe	0.86622	0.941614	0.958275
0	F	0.847724	0.922747	0.949097
0	O	0.886955	0.927882	0.946763
0	C	0.92625	0.894779	0.955336
0	C	0.901269	0.919935	0.955812
0	C	0.909475	0.902594	0.947448
0	C	0.902101	0.895296	0.929958
0	O	0.907278	0.926106	0.972638
0	O	0.882488	0.979204	0.933759
0	O	0.860782	0.955762	0.933189
0	C	0.872185	0.945612	0.894708
0	C	0.875978	0.963979	0.903318
0	C	0.886625	0.977482	0.893105
0	C	0.872942	0.966529	0.924224
0	H	0.887738	0.899532	0.926348
0	H	0.868117	0.934081	0.903784
0	O	0.821428	0.982684	0.892632
0	C	0.807474	0.978235	0.98216
0	C	0.816539	0.973795	0.964883
0	C	0.805945	0.966683	0.949242
0	H	0.811783	0.966672	0.934964
0	C	0.803043	0.888202	0.879837
0	C	0.806958	0.926654	0.878107
0	O	0.912824	0.990873	0.957375
0	Fe	0.903604	0.953517	0.988091
0	H	0.891063	0.989889	0.900325
0	O	0.849637	0.985429	0.961581
0	O	0.870353	0.924277	0.982738
0	O	0.925293	0.963669	0.97167
0	O	0.889225	0.88477	0.894433
0	H	0.932232	0.902356	0.967067
0	C	0.926632	0.978145	0.959806
0	C	0.911022	0.879899	0.920349
0	C	0.938062	0.883211	0.943008
0	C	0.945613	0.978227	0.947743
0	O	0.846731	0.882139	0.886472
0	C	0.947603	0.988657	0.928773
0	C	0.892705	0.973774	0.873915
0	C	0.878289	0.942304	0.875015
0	H	0.7972	0.888259	0.893889
0	O	0.788964	0.894264	0.981644
0	C	0.903543	0.875122	0.900771
0	C	0.929658	0.873934	0.926272
0	O	0.794413	0.929296	0.891209
0	Fe	0.872768	0.881075	0.870619
0	C	0.787319	0.975673	0.983828
0	H	0.848245	0.8915	0.89702
0	H	0.790635	0.887619	0.96945
0	O	0.814468	0.9419	0.870737
0	H	0.848035	0.870144	0.89418
0	Fe	0.805981	0.973222	0.869773
0	O	0.0993805	0.904078	0.870764
0	C	0.989311	0.90562	0.875423
0	O	0.0730967	0.987862	0.950524
0	H	0.0645372	0.899837	0.895863
0	O	0.091406	0.983735	0.986246
0	H	0.0741858	0.939953	0.970031
0	C	0.0647587	0.94158	0.982785
0	Fe	0.102259	0.987555	0.959297
0	O	0.988233	0.93284	0.958604
0	O	0.00420316	0.896633	0.940744
0	C	0.0339948	0.921311	0.97049
0	C	0.998766	0.899957	0.894486
0	C	0.963716	0.986054	0.915753
0	O	0.00940799	0.911925	0.902473
0	H	0.10006	0.914192	0.969843
0	O	0.00137819	0.938305	0.930378
0	O	0.0350031	0.925841	0.953076
0	O	0.0391346	0.936287	0.914488
0	O	0.0419829	0.897609	0.923361
0	C	0.0458027	0.932692	0.985581
0	C	0.0811788	0.877002	0.881456
0	C	0.989106	0.942509	0.943008
0	H	0.0403402	0.931749	0.901372
0	H	0.95863	0.954622	0.963569
0	Fe	0.0209826	0.91694	0.927992
0	H	0.991032	0.969667	0.911356
0	C	0.0424342	0.879784	0.919445
0	C	0.959348	0.883919	0.944935
0	C	0.107752	0.879354	0.984208
0	C	0.111809	0.908102	0.961768
0	C	0.976146	0.960109	0.938266
0	O	0.995403	0.883508	0.902222
0	O	0.020702	0.908709	0.977187
0	H	0.0516178	0.932011	0.918855
0	Fe	0.992643	0.902836	0.965995
0	C	0.960287	0.963907	0.951645
0	C	0.0705548	0.885075	0.897369
0	C	0.978161	0.971503	0.921178
0	O	0.10747	0.955273	0.953617
0	O	0.966179	0.898569	0.954802
0	O	0.988311	0.874377	0.97571
0	C	0.117559	0.889146	0.968025
0	O	0.0926369	0.88643	0.990797
0	O	0.108168	0.991202	0.930581
0	O	0.980277	0.910571	0.99317
0	H	0.973069	0.878669	0.874987
0	O	0.978746	0.993432	0.883555
0	H	0.0676706	0.977345	0.958213
0	O	0.969618	0.872306	0.935299
0	H	0.998852	0.935971	0.8743
0	C	0.0918745	0.966468	0.992601
0	O	0.109042	0.958791	0.993613
0	Fe	0.99915	0.87054	0.928218
0	C	0.060353	0.872424	0.910572
0	C	0.901377	0.118477	0.968888
0	O	0.879365	0.99962	0.988348
0	H	0.873345	0.113207	0.907257
0	H	0.935678	0.997564	0.924212
0	H	0.849126	0.00106993	0.878219
0	C	0.818336	0.999251	0.900738
0	F	0.924706	0.0360081	0.877729
0	H	0.802081	0.0898068	0.928107
0	O	0.879141	0.0177456	0.949562
0	H	0.888554	0.0184178	0.938889
0	H	0.884173	0.0263895	0.958908
0	O	0.800794	0.00567295	0.904586
0	O	0.82858	0.0855588	0.962991
0	C	0.83846	0.0811161	0.978082
0	Fe	0.876193	0.084908	0.955265
0	O	0.896067	0.0868964	0.932982
0	O	0.861178	0.0645232	0.936601
0	Fe	0.832928	0.103377	0.939564
0	O	0.834923	0.0775594	0.922399
0	C	0.846814	0.0634511	0.924898
0	F	0.89073	0.0642315	0.966401
0	C	0.858854	0.0460242	0.896461
0	C	0.845783	0.0456719	0.912196
0	C	0.835083	0.0131579	0.902362
0	C	0.833029	0.0299692	0.914354
0	H	0.820687	0.0308531	0.924692
0	H	0.908145	0.0902329	0.940419
0	O	0.857093	0.0825372	0.977931
0	O	0.80268	0.101899	0.936276
0	C	0.84891	0.0131667	0.887503
0	C	0.860049	0.0302303	0.883474
0	H	0.866999	0.0585087	0.89275
0	O	0.860365	0.105781	0.942422
0	O	0.892236	0.103475	0.974046
0	H	0.797735	0.0972107	0.949012
0	O	0.949589	0.00694287	0.890656
0	H	0.815738	0.0482468	0.984594
0	O	0.832841	0.119271	0.913619
0	H	0.0672869	0.000212974	0.955861
0	C	0.965088	0.996775	0.896086
0	H	0.958489	0.0946533	0.899551
0	H	0.0346003	0.113894	0.983045
0	H	0.960897	0.0857723	0.877961
0	O	0.0344299	0.106328	0.874048
0	C	0.115241	0.032891	0.965522
0	H	0.99347	0.0638171	0.880067
0	O	0.0851342	0.114375	0.976656
0	C	0.104826	0.0712601	0.969285
0	O	0.968069	0.0884685	0.890143
0	Fe	0.985848	0.112124	0.882122
0	O	0.00989104	0.0971308	0.891192
0	C	0.102024	0.110267	0.969525
0	C	0.0219247	0.0933678	0.877997
0	H	0.0920422	0.0692018	0.959686
0	C	0.110311	0.0908628	0.975083
0	O	0.101224	0.0195775	0.966037
0	H	0.973742	0.068512	0.989765
0	C	0.997672	0.116528	0.992492
0	C	0.116156	0.0538697	0.974256
0	H	0.81456	0.983194	0.994543
0	O	0.80671	0.917268	0.000270813
0	H	0.813899	0.930502	0.998396
0	O	0.790207	0.91328	0.0583367
0	C	0.853319	0.870537	0.0767037
0	H	0.889562	0.882057	0.11466
0	O	0.819016	0.879529	0.00831558
0	O	0.912608	0.872734	0.0379899
0	C	0.862332	0.873543	0.0246473
0	H	0.932998	0.936364	0.000791273
0	H	0.920569	0.93765	0.0185385
0	H	0.865637	0.877925	0.0715611
0	H	0.835287	0.936588	0.0835134
0	O	0.833261	0.943221	0.0958011
0	O	0.857807	0.907428	0.0978038
0	C	0.850661	0.891547	0.103887
0	O	0.878269	0.94239	0.0949821
0	C	0.896949	0.944237	0.096881
0	H	0.821404	0.937109	0.100909
0	O	0.884788	0.941757	0.00644257
0	C	0.875555	0.926643	0.000232258
0	O	0.901161	0.980523	0.00400425
0	O	0.818694	0.893914	0.0376565
0	C	0.827626	0.885781	0.023866
0	C	0.92725	0.886043	0.0759761
0	C	0.886916	0.89803	0.0175431
0	C	0.853215	0.907073	0.0181971
0	C	0.848307	0.888223	0.0237014
0	C	0.87262	0.91083	0.0129192
0	H	0.842442	0.917497	0.014281
0	H	0.9016	0.900741	0.0131615
0	C	0.925092	0.948316	0.0715461
0	C	0.926925	0.907613	0.0728823
0	C	0.909802	0.937208	0.0810117
0	C	0.909807	0.917351	0.0794521
0	C	0.942818	0.939283	0.0639561
0	H	0.925449	0.964374	0.0730233
0	H	0.898488	0.908561	0.0857387
0	C	0.942314	0.918262	0.0639727
0	H	0.885407	0.99059	0.0444701
0	O	0.925589	0.9466	0.00848215
0	O	0.817105	0.937209	0.0360655
0	O	0.941922	0.875904	0.0716702
0	H	0.82467	0.932419	0.0478208
0	C	0.882363	0.878659	0.023322
0	O	0.913296	0.875748	0.082878
0	C	0.841253	0.878119	0.0906073
0	Fe	0.79755	0.913932	0.0297019
0	H	0.810721	0.949408	0.0388708
0	O	0.941531	0.948305	0.107189
0	O	0.904485	0.945903	0.113554
0	Fe	0.855229	0.931241	0.113513
0	H	0.814541	0.874753	0.108435
0	H	0.947216	0.934469	0.101175
0	H	0.859913	0.993711	0.113445
0	H	0.801724	0.988099	0.0526006
0	H	0.949743	0.886309	0.0295687
0	Fe	0.78972	0.873296	0.00315884
0	H	0.936775	0.984481	0.11623
0	O	0.119312	0.887062	0.0266406
0	H	0.989027	0.916268	0.00298502
0	F	0.0847583	0.871592	0.0962854
0	C	0.0524096	0.872768	0.0527624
0	H	0.975219	0.898712	0.999779
0	C	0.0722976	0.955468	0.996445
0	O	0.956312	0.873847	0.0332533
0	H	0.956237	0.911449	0.062266
0	H	0.0194452	0.933045	0.00390907
0	Fe	0.0912503	0.889343	0.116392
0	C	0.113687	0.91499	0.0463516
0	C	0.0363589	0.900295	0.0712775
0	C	0.0402948	0.953332	0.0140055
0	C	0.106289	0.931388	0.0770909
0	C	0.0594699	0.961685	0.0115211
0	O	0.971174	0.955128	0.0490776
0	O	0.967241	0.957336	0.0811788
0	H	0.995792	0.898896	0.100461
0	O	0.0397089	0.982926	0.0916183
0	C	0.0340927	0.938952	0.00150452
0	C	0.027633	0.956987	0.030109
0	O	0.00608984	0.970422	0.0702717
0	C	0.961724	0.950708	0.064273
0	C	0.0190373	0.929192	0.0862479
0	Fe	0.0344032	0.967135	0.068418
0	C	0.100136	0.921191	0.0607966
0	H	0.0665934	0.954014	0.0544853
0	H	0.08529	0.915882	0.0606084
0	F	0.0591845	0.901606	0.00634725
0	C	0.0213174	0.907851	0.0834076
0	O	0.0651312	0.964001	0.0643905
0	O	0.0511043	0.878298	0.0352737
0	O	0.017041	0.970677	0.111709
0	Fe	0.990897	0.979545	0.0476264
0	O	0.0862031	0.909944	0.0955045
0	O	0.0880902	0.897801	0.0310842
0	O	0.0108818	0.966272	0.0272199
0	C	0.0376629	0.879991	0.066685
0	O	0.0318868	0.95038	0.045878
0	Fe	0.993596	0.964498	0.0944556
0	Fe	0.0725808	0.880545	0.0138867
0	O	0.0333275	0.94005	0.0824193
0	O	0.00162023	0.935882	0.0894713
0	C	0.0947534	0.926733	0.0949793
0	C	0.0319955	0.981117	0.108258
0	H	0.0627033	0.973722	0.0212517
0	C	0.00756245	0.894196	0.0910362
0	O	0.093999	0.938369	0.10947
0	H	0.0475187	0.909755	0.0642557
0	H	0.0732021	0.957606	0.0752406
0	C	0.10699	0.898904	0.0336935
0	C	0.00909422	0.874445	0.0872706
0	O	0.974842	0.988516	0.0244381
0	H	0.0682015	0.990898	0.110873
0	O	0.0368269	0.992887	0.0527982
0	O	0.9854	0.993748	0.0970369
0	H	0.961249	0.987261	0.0279868
0	F	0.983178	0.959689	0.118652
0	H	0.966377	0.877402	0.0427856
0	H	0.88093	0.998547	0.11627
0	O	0.914589	0.0687675	0.11904
0	H	0.827791	0.0326655	0.109801
0	C	0.889007	0.994967	0.00393418
0	H	0.95121	0.110769	0.0916824
0	C	0.947047	0.118806	0.0257652
0	H	0.836011	0.0168568	0.0960396
0	Fe	0.862325	0.0279944	0.116265
0	H	0.799234	0.00625128	0.0656303
0	O	0.798936	0.111048	0.0829929
0	C	0.813825	0.0592607	0.995509
0	C	0.825957	0.0763669	0.994705
0	C	0.798957	0.110203	0.028632
0	C	0.795491	0.0743917	0.0212409
0	H	0.920859	0.103749	0.00111943
0	O	0.800861	0.00220446	0.051723
0	C	0.889195	0.0297868	0.0164118
0	C	0.890831	0.0446222	0.0305222
0	C	0.888463	0.0398644	0.0500304
0	C	0.888398	0.00966241	0.0218306
0	H	0.891918	0.0335048	0.000954148
0	H	0.889385	0.0519817	0.0599179
0	O	0.88719	0.0591668	0.0909403
0	C	0.8674	0.0925283	0.0743398
0	C	0.857616	0.0776253	0.0839388
0	C	0.868895	0.0640494	0.0959452
0	O	0.86985	0.0215654	0.0874989
0	Fe	0.908105	0.0417369	0.105798
0	F	0.924839	0.0470846	0.0859739
0	O	0.902226	0.0181738	0.0883211
0	C	0.885998	0.0190637	0.0785828
0	H	0.882692	0.0940671	0.0790612
0	C	0.886471	0.00578333	0.0416473
0	C	0.886153	0.0208231	0.0561598
0	C	0.799174	0.0585777	0.00910995
0	O	0.8982	0.0703452	0.00685959
0	C	0.893426	0.0660126	0.0244105
0	O	0.888486	0.0804152	0.0364951
0	H	0.88821	0.0945403	0.0287728
0	C	0.806766	0.0940064	0.0811291
0	C	0.821681	0.0919916	0.00667914
0	C	0.837159	0.0757619	0.0833319
0	C	0.805438	0.0919363	0.0189043
0	C	0.826808	0.0917894	0.0762478
0	H	0.916181	0.108176	0.107531
0	O	0.83387	0.0195131	0.109402
0	H	0.8315	0.0622216	0.0892398
0	H	0.830518	0.10528	0.00489823
0	O	0.796902	0.0783735	0.0823103
0	C	0.856076	0.107644	0.0671957
0	C	0.836326	0.107529	0.0685723
0	O	0.859018	0.0563493	0.110055
0	C	0.787361	0.0409611	0.0129208
0	O	0.950373	0.100166	0.0228239
0	H	0.920881	0.119379	0.0656807
0	H	0.105476	0.0915351	0.0427578
0	O	0.0934211	0.0809798	0.116603
0	C	0.976759	0.00321713	0.0834473
0	H	0.0786534	0.101623	0.0148076
0	H	0.0553418	0.100834	0.0743114
0	O	0.99621	0.103345	0.0787268
0	Fe	0.108148	0.0254055	0.0826262
0	H	0.0888114	0.998342	0.0698554
0	O	0.103301	0.997405	0.0710644
0	H	0.107545	0.994758	0.0572698
0	H	0.0063394	0.0988936	0.114095
0	O	0.967113	0.0661838	0.00250031
0	C	0.0809705	0.0465784	0.0577892
0	Fe	0.11274	0.0735199	0.0740424
0	H	0.060291	0.107346	0.00340357
0	C	0.0530665	0.0618785	0.0386734
0	Fe	0.973933	0.114477	0.0621561
0	O	0.115414	0.0958475	0.0533349
0	C	0.9679	0.0380806	0.0734959
0	C	0.0215334	0.0988665	0.111706
0	C	0.964568	0.0635941	0.0976134
0	H	0.968585	0.0323767	0.0584874
0	C	0.964473	0.0717194	0.0605644
0	C	0.968681	0.0507628	0.113175
0	O	0.0691941	0.112539	0.0133472
0	O	0.973545	0.996747	0.0659013
0	O	0.983155	0.104959	0.99678
0	C	0.964344	0.057573	0.0774312
0	C	0.054805	0.0263505	0.0440323
0	O	0.0881003	0.0840448	0.0844782
0	C	0.0289949	0.101632	0.0926566
0	H	0.977374	0.00282082	0.0243533
0	H	0.0595326	0.0758733	0.039568
0	O	0.082511	0.0332033	0.070867
0	C	0.0624945	0.0950813	0.105074
0	Fe	0.977779	0.0872402	0.0216803
0	H	0.952958	0.0690826	0.0014962
0	C	0.969997	0.0241984	0.0882357
0	O	0.0930254	0.016735	0.106844
0	C	0.0334184	0.0601691	0.0327421
0	O	0.989235	0.10668	0.0393787
0	O	0.00728643	0.00480558	0.0457706
0	O	0.0949427	0.0586367	0.0545962
0	C	0.969871	0.0307161	0.108291
0	O	0.95736	0.0883881	0.0623835
0	O	0.00547647	0.0744851	0.0197464
0	C	0.0218371	0.0779443	0.0274265
0	C	0.082344	0.0862694	0.101701
0	H	0.00981466	0.0409998	0.0356446
0	C	0.0498063	0.100278	0.089335
0	H	0.0633505	0.013416	0.046485
0	C	0.0254243	0.00592297	0.0468891
0	O	0.111289	0.0521084	0.092292
0	C	0.0350591	0.025456	0.0411143
0	H	0.964993	0.0789243	0.10082
0	O	0.972835	0.0672568	0.0442096
0	C	0.0246662	0.0419456	0.0367087
0	C	0.014192	0.10813	0.0773113
0	O	0.0274006	0.0947497	0.0331855
0	C	0.0633325	0.0447008	0.0448136
0	O	0.0206853	0.1187	0.0635155
0	H	0.972345	0.0188263	0.119189
